/*--------------------------------*- C++ -*----------------------------------*\
| =========                 |                                                 |
| \\      /  F ield         | OpenFOAM: The Open Source CFD Toolbox           |
|  \\    /   O peration     | Version:  2.3.1                                 |
|   \\  /    A nd           | Web:      www.OpenFOAM.org                      |
|    \\/     M anipulation  |                                                 |
\*---------------------------------------------------------------------------*/
FoamFile
{
    version     2.0;
    format      binary;
    class       volScalarField;
    location    "0";
    object      epsilon;
}
// * * * * * * * * * * * * * * * * * * * * * * * * * * * * * * * * * * * * * //

dimensions      [0 2 -3 0 0 0 0];

internalField   uniform 30000;

boundaryField
{
    inletCH4
    {
        type            turbulentMixingLengthDissipationRateInlet;
        mixingLength    0.000504;
        phi             phi;
        k               k;
        value           uniform 1;
    }
    wallOutside
    {
        type            epsilonWallFunction;
        value           uniform 30000;
        Cmu             0.09;
        kappa           0.41;
        E               9.8;
        value           uniform 30000;
    }
    wallTube
    {
        type            epsilonWallFunction;
        value           uniform 30000;
        Cmu             0.09;
        kappa           0.41;
        E               9.8;
        value           uniform 30000;
    }
    inletPilot
    {
        type            turbulentMixingLengthDissipationRateInlet;
        mixingLength    0.000735;
        phi             phi;
        k               k;
        value           uniform 1;
    }
    inletAir
    {
        type            turbulentMixingLengthDissipationRateInlet;
        mixingLength    0.019677;
        phi             phi;
        k               k;
        value           uniform 1;
    }
    outlet
    {
        type            zeroGradient;
    }
    axis
    {
        type            empty;
    }
    frontAndBack_pos
    {
        type            wedge;
    }
    frontAndBack_neg
    {
        type            wedge;
    }
}


// ************************************************************************* //
