ELEMENTS
C  H  O  N
END
SPECIES
N2 H2O CO2 O2 CH4 OH CH2O NO NO2
END
THERMO
END
REACTIONS
N2+N2=N2+N2              1.59E+17   -0.927   16874.    !  1
END

