/*--------------------------------*- C++ -*----------------------------------*\
| =========                 |                                                 |
| \      /  F ield          | OpenFOAM: The Open Source CFD Toolbox           |
|  \    /   O peration      | Version:  7                                     |
|   \  /    A nd            | Web:      http://www.OpenFOAM.com               |
|    \/     M anipulation   |                                                 |
\*---------------------------------------------------------------------------*/
FoamFile 
{   version     2.0;
    format      ascii;
    class       dictionary;
    location    "constant";
    object      LDMtable;
}
// * * * * * * * * * * * * * * * * * * * * * * * * * * * * * * * * * * * * * //

alpha_table
5
(

51
(

5
(

51
(
 2.46354e-05
 2.43280e-05
 2.50725e-05
 2.47191e-05
 2.43907e-05
 2.40843e-05
 2.28529e-05
 2.25733e-05
 2.22988e-05
 2.20294e-05
 2.17650e-05
 2.15057e-05
 2.12513e-05
 2.10017e-05
 2.07569e-05
 2.05169e-05
 2.02814e-05
 2.00506e-05
 1.98241e-05
 1.96021e-05
 1.93843e-05
 1.91708e-05
 1.89613e-05
 1.87558e-05
 1.85543e-05
 1.83566e-05
 1.81626e-05
 1.79723e-05
 1.77856e-05
 1.76024e-05
 1.74225e-05
 1.72460e-05
 1.70728e-05
 1.69027e-05
 1.67357e-05
 1.65718e-05
 1.64108e-05
 1.62527e-05
 1.60973e-05
 1.59448e-05
 1.57949e-05
 1.56476e-05
 1.55029e-05
 1.53607e-05
 1.52209e-05
 1.50835e-05
 1.49484e-05
 1.48156e-05
 1.46850e-05
 1.45566e-05
 1.44302e-05
)


51
(
 2.46354e-05
 2.43675e-05
 2.41166e-05
 2.38580e-05
 2.35907e-05
 2.33166e-05
 2.30377e-05
 2.27563e-05
 2.24741e-05
 2.21928e-05
 2.19136e-05
 2.16378e-05
 2.13660e-05
 2.10990e-05
 2.08372e-05
 2.05809e-05
 2.03304e-05
 2.00857e-05
 1.98469e-05
 1.96138e-05
 1.93865e-05
 1.91647e-05
 1.89484e-05
 1.87373e-05
 1.85312e-05
 1.83300e-05
 1.81335e-05
 1.79414e-05
 1.77536e-05
 1.75699e-05
 1.73902e-05
 1.72142e-05
 1.70418e-05
 1.68729e-05
 1.67073e-05
 1.65449e-05
 1.63857e-05
 1.62294e-05
 1.60759e-05
 1.59253e-05
 1.57773e-05
 1.56320e-05
 1.54892e-05
 1.53488e-05
 1.52108e-05
 1.50751e-05
 1.49417e-05
 1.48105e-05
 1.46815e-05
 1.45546e-05
 1.44302e-05
)


51
(
 2.46354e-05
 2.43153e-05
 2.40092e-05
 2.37096e-05
 2.34151e-05
 2.31254e-05
 2.28402e-05
 2.25597e-05
 2.22838e-05
 2.20127e-05
 2.17463e-05
 2.14846e-05
 2.12277e-05
 2.09756e-05
 2.07283e-05
 2.04856e-05
 2.02477e-05
 2.00145e-05
 1.97858e-05
 1.95618e-05
 1.93421e-05
 1.91269e-05
 1.89161e-05
 1.87095e-05
 1.85071e-05
 1.83087e-05
 1.81144e-05
 1.79240e-05
 1.77374e-05
 1.75546e-05
 1.73754e-05
 1.71998e-05
 1.70276e-05
 1.68588e-05
 1.66933e-05
 1.65310e-05
 1.63719e-05
 1.62158e-05
 1.60626e-05
 1.59123e-05
 1.57648e-05
 1.56201e-05
 1.54780e-05
 1.53384e-05
 1.52014e-05
 1.50668e-05
 1.49346e-05
 1.48048e-05
 1.46773e-05
 1.45522e-05
 1.44302e-05
)


51
(
 2.46354e-05
 2.42906e-05
 2.39574e-05
 2.36339e-05
 2.33194e-05
 2.30132e-05
 2.27150e-05
 2.24243e-05
 2.21409e-05
 2.18645e-05
 2.15947e-05
 2.13314e-05
 2.10744e-05
 2.08233e-05
 2.05781e-05
 2.03384e-05
 2.01042e-05
 1.98752e-05
 1.96512e-05
 1.94321e-05
 1.92178e-05
 1.90080e-05
 1.88028e-05
 1.86018e-05
 1.84050e-05
 1.82122e-05
 1.80234e-05
 1.78383e-05
 1.76570e-05
 1.74793e-05
 1.73051e-05
 1.71343e-05
 1.69667e-05
 1.68024e-05
 1.66412e-05
 1.64830e-05
 1.63278e-05
 1.61755e-05
 1.60260e-05
 1.58791e-05
 1.57350e-05
 1.55934e-05
 1.54544e-05
 1.53179e-05
 1.51838e-05
 1.50520e-05
 1.49227e-05
 1.47956e-05
 1.46710e-05
 1.45490e-05
 1.44302e-05
)


51
(
 2.46354e-05
 2.42741e-05
 2.39239e-05
 2.35844e-05
 2.32551e-05
 2.29355e-05
 2.26253e-05
 2.23240e-05
 2.20312e-05
 2.17466e-05
 2.14698e-05
 2.12005e-05
 2.09385e-05
 2.06834e-05
 2.04350e-05
 2.01929e-05
 1.99571e-05
 1.97271e-05
 1.95029e-05
 1.92841e-05
 1.90707e-05
 1.88623e-05
 1.86589e-05
 1.84602e-05
 1.82662e-05
 1.80765e-05
 1.78912e-05
 1.77099e-05
 1.75327e-05
 1.73594e-05
 1.71897e-05
 1.70238e-05
 1.68613e-05
 1.67022e-05
 1.65464e-05
 1.63938e-05
 1.62443e-05
 1.60978e-05
 1.59542e-05
 1.58135e-05
 1.56755e-05
 1.55401e-05
 1.54074e-05
 1.52771e-05
 1.51493e-05
 1.50239e-05
 1.49008e-05
 1.47799e-05
 1.46612e-05
 1.45447e-05
 1.44302e-05
)


)


5
(

51
(
 2.46354e-05
 2.52595e-05
 2.51006e-05
 2.47534e-05
 2.45236e-05
 2.54547e-05
 2.47293e-05
 2.42876e-05
 2.38636e-05
 2.34595e-05
 2.30746e-05
 2.27077e-05
 2.23593e-05
 2.20303e-05
 2.17722e-05
 2.14820e-05
 2.11992e-05
 2.09235e-05
 2.06545e-05
 2.03921e-05
 2.01358e-05
 1.98854e-05
 1.96408e-05
 1.94017e-05
 1.91679e-05
 1.89391e-05
 1.87153e-05
 1.84962e-05
 1.82815e-05
 1.80714e-05
 1.78653e-05
 1.76634e-05
 1.74654e-05
 1.72712e-05
 1.70806e-05
 1.68935e-05
 1.67099e-05
 1.65294e-05
 1.63521e-05
 1.61779e-05
 1.60065e-05
 1.58379e-05
 1.56721e-05
 1.55088e-05
 1.53480e-05
 1.51896e-05
 1.50335e-05
 1.48796e-05
 1.47278e-05
 1.45780e-05
 1.44302e-05
)


51
(
 2.46354e-05
 2.47309e-05
 2.46202e-05
 2.44511e-05
 2.42499e-05
 2.40268e-05
 2.37879e-05
 2.35376e-05
 2.32790e-05
 2.30147e-05
 2.27467e-05
 2.24769e-05
 2.22065e-05
 2.19368e-05
 2.16685e-05
 2.14023e-05
 2.11390e-05
 2.08789e-05
 2.06223e-05
 2.03696e-05
 2.01209e-05
 1.98764e-05
 1.96361e-05
 1.94000e-05
 1.91683e-05
 1.89409e-05
 1.87178e-05
 1.84989e-05
 1.82841e-05
 1.80735e-05
 1.78668e-05
 1.76641e-05
 1.74653e-05
 1.72702e-05
 1.70787e-05
 1.68908e-05
 1.67063e-05
 1.65251e-05
 1.63472e-05
 1.61723e-05
 1.60005e-05
 1.58316e-05
 1.56655e-05
 1.55021e-05
 1.53414e-05
 1.51831e-05
 1.50273e-05
 1.48739e-05
 1.47229e-05
 1.45744e-05
 1.44302e-05
)


51
(
 2.46354e-05
 2.45882e-05
 2.43907e-05
 2.41562e-05
 2.39073e-05
 2.36517e-05
 2.33930e-05
 2.31332e-05
 2.28735e-05
 2.26146e-05
 2.23571e-05
 2.21015e-05
 2.18480e-05
 2.15969e-05
 2.13485e-05
 2.11028e-05
 2.08600e-05
 2.06202e-05
 2.03835e-05
 2.01499e-05
 1.99196e-05
 1.96925e-05
 1.94686e-05
 1.92480e-05
 1.90307e-05
 1.88167e-05
 1.86059e-05
 1.83983e-05
 1.81939e-05
 1.79927e-05
 1.77946e-05
 1.75996e-05
 1.74076e-05
 1.72187e-05
 1.70327e-05
 1.68497e-05
 1.66695e-05
 1.64921e-05
 1.63175e-05
 1.61457e-05
 1.59764e-05
 1.58098e-05
 1.56458e-05
 1.54843e-05
 1.53253e-05
 1.51687e-05
 1.50147e-05
 1.48631e-05
 1.47143e-05
 1.45689e-05
 1.44302e-05
)


51
(
 2.46354e-05
 2.44635e-05
 2.42168e-05
 2.39466e-05
 2.36681e-05
 2.33876e-05
 2.31082e-05
 2.28315e-05
 2.25583e-05
 2.22893e-05
 2.20246e-05
 2.17643e-05
 2.15086e-05
 2.12574e-05
 2.10106e-05
 2.07683e-05
 2.05302e-05
 2.02964e-05
 2.00668e-05
 1.98412e-05
 1.96195e-05
 1.94018e-05
 1.91877e-05
 1.89774e-05
 1.87707e-05
 1.85674e-05
 1.83675e-05
 1.81710e-05
 1.79777e-05
 1.77876e-05
 1.76006e-05
 1.74165e-05
 1.72354e-05
 1.70572e-05
 1.68818e-05
 1.67091e-05
 1.65391e-05
 1.63717e-05
 1.62068e-05
 1.60445e-05
 1.58847e-05
 1.57273e-05
 1.55723e-05
 1.54197e-05
 1.52694e-05
 1.51216e-05
 1.49763e-05
 1.48336e-05
 1.46941e-05
 1.45586e-05
 1.44302e-05
)


51
(
 2.46354e-05
 2.42741e-05
 2.39239e-05
 2.35844e-05
 2.32551e-05
 2.29355e-05
 2.26253e-05
 2.23240e-05
 2.20312e-05
 2.17466e-05
 2.14698e-05
 2.12005e-05
 2.09385e-05
 2.06834e-05
 2.04350e-05
 2.01929e-05
 1.99571e-05
 1.97271e-05
 1.95029e-05
 1.92841e-05
 1.90707e-05
 1.88623e-05
 1.86589e-05
 1.84602e-05
 1.82662e-05
 1.80765e-05
 1.78912e-05
 1.77099e-05
 1.75327e-05
 1.73594e-05
 1.71897e-05
 1.70238e-05
 1.68613e-05
 1.67022e-05
 1.65464e-05
 1.63938e-05
 1.62443e-05
 1.60978e-05
 1.59542e-05
 1.58135e-05
 1.56755e-05
 1.55401e-05
 1.54074e-05
 1.52771e-05
 1.51493e-05
 1.50239e-05
 1.49008e-05
 1.47799e-05
 1.46612e-05
 1.45447e-05
 1.44302e-05
)


)


5
(

51
(
 2.46354e-05
 2.61909e-05
 2.53552e-05
 2.50710e-05
 2.49128e-05
 2.68792e-05
 2.66056e-05
 2.60018e-05
 2.54284e-05
 2.48896e-05
 2.43841e-05
 2.39096e-05
 2.34673e-05
 2.30590e-05
 2.27875e-05
 2.24472e-05
 2.21170e-05
 2.17965e-05
 2.14850e-05
 2.11821e-05
 2.08873e-05
 2.06001e-05
 2.03203e-05
 2.00476e-05
 1.97814e-05
 1.95217e-05
 1.92680e-05
 1.90200e-05
 1.87775e-05
 1.85404e-05
 1.83081e-05
 1.80808e-05
 1.78581e-05
 1.76396e-05
 1.74254e-05
 1.72153e-05
 1.70089e-05
 1.68062e-05
 1.66069e-05
 1.64110e-05
 1.62181e-05
 1.60283e-05
 1.58413e-05
 1.56569e-05
 1.54750e-05
 1.52957e-05
 1.51186e-05
 1.49435e-05
 1.47705e-05
 1.45995e-05
 1.44302e-05
)


51
(
 2.46354e-05
 2.50939e-05
 2.51156e-05
 2.50316e-05
 2.48944e-05
 2.47225e-05
 2.45252e-05
 2.43083e-05
 2.40762e-05
 2.38321e-05
 2.35785e-05
 2.33177e-05
 2.30515e-05
 2.27813e-05
 2.25086e-05
 2.22344e-05
 2.19596e-05
 2.16851e-05
 2.14116e-05
 2.11396e-05
 2.08698e-05
 2.06025e-05
 2.03380e-05
 2.00769e-05
 1.98191e-05
 1.95651e-05
 1.93148e-05
 1.90685e-05
 1.88263e-05
 1.85881e-05
 1.83540e-05
 1.81240e-05
 1.78981e-05
 1.76763e-05
 1.74584e-05
 1.72443e-05
 1.70341e-05
 1.68276e-05
 1.66246e-05
 1.64251e-05
 1.62290e-05
 1.60361e-05
 1.58462e-05
 1.56593e-05
 1.54752e-05
 1.52939e-05
 1.51151e-05
 1.49389e-05
 1.47653e-05
 1.45947e-05
 1.44302e-05
)


51
(
 2.46354e-05
 2.48654e-05
 2.47735e-05
 2.46013e-05
 2.43956e-05
 2.41725e-05
 2.39393e-05
 2.36996e-05
 2.34557e-05
 2.32092e-05
 2.29610e-05
 2.27119e-05
 2.24625e-05
 2.22133e-05
 2.19647e-05
 2.17169e-05
 2.14703e-05
 2.12251e-05
 2.09815e-05
 2.07396e-05
 2.04996e-05
 2.02616e-05
 2.00258e-05
 1.97921e-05
 1.95608e-05
 1.93318e-05
 1.91052e-05
 1.88810e-05
 1.86593e-05
 1.84402e-05
 1.82235e-05
 1.80094e-05
 1.77978e-05
 1.75888e-05
 1.73823e-05
 1.71784e-05
 1.69770e-05
 1.67781e-05
 1.65817e-05
 1.63877e-05
 1.61962e-05
 1.60072e-05
 1.58205e-05
 1.56363e-05
 1.54545e-05
 1.52751e-05
 1.50982e-05
 1.49240e-05
 1.47528e-05
 1.45861e-05
 1.44302e-05
)


51
(
 2.46354e-05
 2.46413e-05
 2.44812e-05
 2.42634e-05
 2.40199e-05
 2.37642e-05
 2.35030e-05
 2.32397e-05
 2.29764e-05
 2.27145e-05
 2.24546e-05
 2.21972e-05
 2.19428e-05
 2.16914e-05
 2.14432e-05
 2.11982e-05
 2.09566e-05
 2.07182e-05
 2.04831e-05
 2.02512e-05
 2.00226e-05
 1.97971e-05
 1.95746e-05
 1.93553e-05
 1.91389e-05
 1.89254e-05
 1.87148e-05
 1.85070e-05
 1.83020e-05
 1.80997e-05
 1.79000e-05
 1.77029e-05
 1.75084e-05
 1.73163e-05
 1.71267e-05
 1.69395e-05
 1.67547e-05
 1.65722e-05
 1.63920e-05
 1.62140e-05
 1.60383e-05
 1.58648e-05
 1.56935e-05
 1.55245e-05
 1.53577e-05
 1.51934e-05
 1.50316e-05
 1.48728e-05
 1.47178e-05
 1.45685e-05
 1.44302e-05
)


51
(
 2.46354e-05
 2.42741e-05
 2.39239e-05
 2.35844e-05
 2.32551e-05
 2.29355e-05
 2.26253e-05
 2.23240e-05
 2.20312e-05
 2.17466e-05
 2.14698e-05
 2.12005e-05
 2.09385e-05
 2.06834e-05
 2.04350e-05
 2.01929e-05
 1.99571e-05
 1.97271e-05
 1.95029e-05
 1.92841e-05
 1.90707e-05
 1.88623e-05
 1.86589e-05
 1.84602e-05
 1.82662e-05
 1.80765e-05
 1.78912e-05
 1.77099e-05
 1.75327e-05
 1.73594e-05
 1.71897e-05
 1.70238e-05
 1.68613e-05
 1.67022e-05
 1.65464e-05
 1.63938e-05
 1.62443e-05
 1.60978e-05
 1.59542e-05
 1.58135e-05
 1.56755e-05
 1.55401e-05
 1.54074e-05
 1.52771e-05
 1.51493e-05
 1.50239e-05
 1.49008e-05
 1.47799e-05
 1.46612e-05
 1.45447e-05
 1.44302e-05
)


)


5
(

51
(
 2.46354e-05
 2.71224e-05
 2.58606e-05
 2.57022e-05
 2.55536e-05
 2.83155e-05
 2.84820e-05
 2.77161e-05
 2.69932e-05
 2.63197e-05
 2.56937e-05
 2.51115e-05
 2.45754e-05
 2.40876e-05
 2.38028e-05
 2.34123e-05
 2.30348e-05
 2.26694e-05
 2.23154e-05
 2.19721e-05
 2.16387e-05
 2.13148e-05
 2.09998e-05
 2.06935e-05
 2.03950e-05
 2.01043e-05
 1.98206e-05
 1.95438e-05
 1.92734e-05
 1.90094e-05
 1.87509e-05
 1.84982e-05
 1.82507e-05
 1.80081e-05
 1.77703e-05
 1.75370e-05
 1.73080e-05
 1.70830e-05
 1.68617e-05
 1.66440e-05
 1.64297e-05
 1.62186e-05
 1.60104e-05
 1.58050e-05
 1.56021e-05
 1.54018e-05
 1.52036e-05
 1.50075e-05
 1.48133e-05
 1.46209e-05
 1.44302e-05
)


51
(
 2.46354e-05
 2.54756e-05
 2.56437e-05
 2.56562e-05
 2.55919e-05
 2.54773e-05
 2.53254e-05
 2.51440e-05
 2.49388e-05
 2.47140e-05
 2.44731e-05
 2.42189e-05
 2.39539e-05
 2.36802e-05
 2.33997e-05
 2.31139e-05
 2.28243e-05
 2.25321e-05
 2.22385e-05
 2.19443e-05
 2.16505e-05
 2.13578e-05
 2.10669e-05
 2.07783e-05
 2.04925e-05
 2.02099e-05
 1.99308e-05
 1.96556e-05
 1.93844e-05
 1.91174e-05
 1.88547e-05
 1.85964e-05
 1.83424e-05
 1.80929e-05
 1.78478e-05
 1.76069e-05
 1.73703e-05
 1.71377e-05
 1.69091e-05
 1.66844e-05
 1.64633e-05
 1.62458e-05
 1.60316e-05
 1.58206e-05
 1.56127e-05
 1.54076e-05
 1.52053e-05
 1.50057e-05
 1.48088e-05
 1.46154e-05
 1.44302e-05
)


51
(
 2.46354e-05
 2.51529e-05
 2.51720e-05
 2.50668e-05
 2.49089e-05
 2.47225e-05
 2.45181e-05
 2.43014e-05
 2.40759e-05
 2.38436e-05
 2.36063e-05
 2.33649e-05
 2.31205e-05
 2.28737e-05
 2.26251e-05
 2.23753e-05
 2.21247e-05
 2.18737e-05
 2.16226e-05
 2.13716e-05
 2.11212e-05
 2.08714e-05
 2.06225e-05
 2.03747e-05
 2.01281e-05
 1.98829e-05
 1.96392e-05
 1.93972e-05
 1.91569e-05
 1.89183e-05
 1.86817e-05
 1.84471e-05
 1.82144e-05
 1.79838e-05
 1.77554e-05
 1.75291e-05
 1.73049e-05
 1.70830e-05
 1.68632e-05
 1.66457e-05
 1.64305e-05
 1.62174e-05
 1.60067e-05
 1.57982e-05
 1.55920e-05
 1.53882e-05
 1.51870e-05
 1.49885e-05
 1.47935e-05
 1.46042e-05
 1.44302e-05
)


51
(
 2.46354e-05
 2.48255e-05
 2.47545e-05
 2.45909e-05
 2.43843e-05
 2.41552e-05
 2.39138e-05
 2.36655e-05
 2.34136e-05
 2.31601e-05
 2.29063e-05
 2.26530e-05
 2.24009e-05
 2.21502e-05
 2.19014e-05
 2.16546e-05
 2.14100e-05
 2.11675e-05
 2.09273e-05
 2.06895e-05
 2.04539e-05
 2.02207e-05
 1.99898e-05
 1.97613e-05
 1.95350e-05
 1.93110e-05
 1.90893e-05
 1.88698e-05
 1.86525e-05
 1.84373e-05
 1.82243e-05
 1.80134e-05
 1.78045e-05
 1.75977e-05
 1.73930e-05
 1.71902e-05
 1.69894e-05
 1.67906e-05
 1.65937e-05
 1.63988e-05
 1.62058e-05
 1.60148e-05
 1.58258e-05
 1.56388e-05
 1.54540e-05
 1.52716e-05
 1.50918e-05
 1.49154e-05
 1.47435e-05
 1.45790e-05
 1.44302e-05
)


51
(
 2.46354e-05
 2.42741e-05
 2.39239e-05
 2.35844e-05
 2.32551e-05
 2.29355e-05
 2.26253e-05
 2.23240e-05
 2.20312e-05
 2.17466e-05
 2.14698e-05
 2.12005e-05
 2.09385e-05
 2.06834e-05
 2.04350e-05
 2.01929e-05
 1.99571e-05
 1.97271e-05
 1.95029e-05
 1.92841e-05
 1.90707e-05
 1.88623e-05
 1.86589e-05
 1.84602e-05
 1.82662e-05
 1.80765e-05
 1.78912e-05
 1.77099e-05
 1.75327e-05
 1.73594e-05
 1.71897e-05
 1.70238e-05
 1.68613e-05
 1.67022e-05
 1.65464e-05
 1.63938e-05
 1.62443e-05
 1.60978e-05
 1.59542e-05
 1.58135e-05
 1.56755e-05
 1.55401e-05
 1.54074e-05
 1.52771e-05
 1.51493e-05
 1.50239e-05
 1.49008e-05
 1.47799e-05
 1.46612e-05
 1.45447e-05
 1.44302e-05
)


)


5
(

51
(
 2.46354e-05
 2.80539e-05
 2.65978e-05
 2.66232e-05
 2.64279e-05
 2.97627e-05
 3.03583e-05
 2.94304e-05
 2.85580e-05
 2.77498e-05
 2.70032e-05
 2.63135e-05
 2.56834e-05
 2.51163e-05
 2.48180e-05
 2.43774e-05
 2.39525e-05
 2.35423e-05
 2.31458e-05
 2.27621e-05
 2.23902e-05
 2.20295e-05
 2.16793e-05
 2.13394e-05
 2.10086e-05
 2.06868e-05
 2.03733e-05
 2.00677e-05
 1.97694e-05
 1.94784e-05
 1.91937e-05
 1.89156e-05
 1.86433e-05
 1.83765e-05
 1.81151e-05
 1.78588e-05
 1.76071e-05
 1.73597e-05
 1.71165e-05
 1.68771e-05
 1.66414e-05
 1.64089e-05
 1.61796e-05
 1.59531e-05
 1.57292e-05
 1.55079e-05
 1.52887e-05
 1.50714e-05
 1.48560e-05
 1.46423e-05
 1.44302e-05
)


51
(
 2.46354e-05
 2.58760e-05
 2.62037e-05
 2.63233e-05
 2.63396e-05
 2.62878e-05
 2.61846e-05
 2.60403e-05
 2.58623e-05
 2.56561e-05
 2.54262e-05
 2.51766e-05
 2.49103e-05
 2.46303e-05
 2.43391e-05
 2.40389e-05
 2.37316e-05
 2.34189e-05
 2.31023e-05
 2.27833e-05
 2.24631e-05
 2.21427e-05
 2.18230e-05
 2.15049e-05
 2.11891e-05
 2.08762e-05
 2.05667e-05
 2.02610e-05
 1.99594e-05
 1.96623e-05
 1.93698e-05
 1.90820e-05
 1.87991e-05
 1.85210e-05
 1.82477e-05
 1.79792e-05
 1.77153e-05
 1.74560e-05
 1.72011e-05
 1.69505e-05
 1.67039e-05
 1.64611e-05
 1.62220e-05
 1.59864e-05
 1.57540e-05
 1.55246e-05
 1.52981e-05
 1.50743e-05
 1.48535e-05
 1.46366e-05
 1.44302e-05
)


51
(
 2.46354e-05
 2.54510e-05
 2.55861e-05
 2.55527e-05
 2.54469e-05
 2.53007e-05
 2.51285e-05
 2.49377e-05
 2.47328e-05
 2.45168e-05
 2.42917e-05
 2.40593e-05
 2.38206e-05
 2.35768e-05
 2.33287e-05
 2.30770e-05
 2.28223e-05
 2.25652e-05
 2.23062e-05
 2.20457e-05
 2.17841e-05
 2.15217e-05
 2.12589e-05
 2.09960e-05
 2.07331e-05
 2.04707e-05
 2.02087e-05
 1.99476e-05
 1.96873e-05
 1.94282e-05
 1.91702e-05
 1.89137e-05
 1.86586e-05
 1.84050e-05
 1.81531e-05
 1.79029e-05
 1.76546e-05
 1.74081e-05
 1.71635e-05
 1.69209e-05
 1.66802e-05
 1.64416e-05
 1.62051e-05
 1.59708e-05
 1.57386e-05
 1.55088e-05
 1.52815e-05
 1.50571e-05
 1.48367e-05
 1.46232e-05
 1.44302e-05
)


51
(
 2.46354e-05
 2.50167e-05
 2.50370e-05
 2.49296e-05
 2.47615e-05
 2.45607e-05
 2.43407e-05
 2.41089e-05
 2.38699e-05
 2.36263e-05
 2.33798e-05
 2.31318e-05
 2.28831e-05
 2.26342e-05
 2.23856e-05
 2.21377e-05
 2.18906e-05
 2.16446e-05
 2.13998e-05
 2.11563e-05
 2.09141e-05
 2.06733e-05
 2.04340e-05
 2.01962e-05
 1.99600e-05
 1.97252e-05
 1.94920e-05
 1.92603e-05
 1.90302e-05
 1.88016e-05
 1.85745e-05
 1.83490e-05
 1.81250e-05
 1.79025e-05
 1.76816e-05
 1.74622e-05
 1.72443e-05
 1.70280e-05
 1.68132e-05
 1.65999e-05
 1.63883e-05
 1.61782e-05
 1.59699e-05
 1.57635e-05
 1.55590e-05
 1.53568e-05
 1.51574e-05
 1.49616e-05
 1.47712e-05
 1.45902e-05
 1.44302e-05
)


51
(
 2.46354e-05
 2.42741e-05
 2.39239e-05
 2.35844e-05
 2.32551e-05
 2.29355e-05
 2.26253e-05
 2.23240e-05
 2.20312e-05
 2.17466e-05
 2.14698e-05
 2.12005e-05
 2.09385e-05
 2.06834e-05
 2.04350e-05
 2.01929e-05
 1.99571e-05
 1.97271e-05
 1.95029e-05
 1.92841e-05
 1.90707e-05
 1.88623e-05
 1.86589e-05
 1.84602e-05
 1.82662e-05
 1.80765e-05
 1.78912e-05
 1.77099e-05
 1.75327e-05
 1.73594e-05
 1.71897e-05
 1.70238e-05
 1.68613e-05
 1.67022e-05
 1.65464e-05
 1.63938e-05
 1.62443e-05
 1.60978e-05
 1.59542e-05
 1.58135e-05
 1.56755e-05
 1.55401e-05
 1.54074e-05
 1.52771e-05
 1.51493e-05
 1.50239e-05
 1.49008e-05
 1.47799e-05
 1.46612e-05
 1.45447e-05
 1.44302e-05
)


)


5
(

51
(
 2.46354e-05
 2.88427e-05
 2.75482e-05
 2.78104e-05
 2.75174e-05
 3.12199e-05
 3.22347e-05
 3.11446e-05
 3.01228e-05
 2.91799e-05
 2.83128e-05
 2.75154e-05
 2.67914e-05
 2.61449e-05
 2.58333e-05
 2.53426e-05
 2.48703e-05
 2.44153e-05
 2.39762e-05
 2.35520e-05
 2.31417e-05
 2.27441e-05
 2.23589e-05
 2.19853e-05
 2.16222e-05
 2.12694e-05
 2.09260e-05
 2.05915e-05
 2.02653e-05
 1.99474e-05
 1.96365e-05
 1.93330e-05
 1.90360e-05
 1.87450e-05
 1.84600e-05
 1.81805e-05
 1.79062e-05
 1.76365e-05
 1.73713e-05
 1.71102e-05
 1.68530e-05
 1.65993e-05
 1.63488e-05
 1.61012e-05
 1.58563e-05
 1.56139e-05
 1.53737e-05
 1.51354e-05
 1.48988e-05
 1.46638e-05
 1.44302e-05
)


51
(
 2.46354e-05
 2.62530e-05
 2.67532e-05
 2.69948e-05
 2.71047e-05
 2.71255e-05
 2.70783e-05
 2.69763e-05
 2.68288e-05
 2.66431e-05
 2.64252e-05
 2.61801e-05
 2.59120e-05
 2.56246e-05
 2.53213e-05
 2.50050e-05
 2.46781e-05
 2.43430e-05
 2.40016e-05
 2.36558e-05
 2.33071e-05
 2.29571e-05
 2.26068e-05
 2.22574e-05
 2.19099e-05
 2.15651e-05
 2.12235e-05
 2.08859e-05
 2.05526e-05
 2.02241e-05
 1.99006e-05
 1.95822e-05
 1.92692e-05
 1.89615e-05
 1.86591e-05
 1.83621e-05
 1.80702e-05
 1.77834e-05
 1.75014e-05
 1.72241e-05
 1.69513e-05
 1.66827e-05
 1.64180e-05
 1.61570e-05
 1.58994e-05
 1.56450e-05
 1.53936e-05
 1.51450e-05
 1.48995e-05
 1.46583e-05
 1.44302e-05
)


51
(
 2.46354e-05
 2.57209e-05
 2.59706e-05
 2.60135e-05
 2.59656e-05
 2.58659e-05
 2.57318e-05
 2.55722e-05
 2.53930e-05
 2.51977e-05
 2.49890e-05
 2.47689e-05
 2.45392e-05
 2.43011e-05
 2.40557e-05
 2.38040e-05
 2.35469e-05
 2.32851e-05
 2.30193e-05
 2.27501e-05
 2.24780e-05
 2.22035e-05
 2.19270e-05
 2.16490e-05
 2.13699e-05
 2.10899e-05
 2.08094e-05
 2.05286e-05
 2.02479e-05
 1.99674e-05
 1.96873e-05
 1.94079e-05
 1.91293e-05
 1.88517e-05
 1.85752e-05
 1.83000e-05
 1.80262e-05
 1.77538e-05
 1.74829e-05
 1.72137e-05
 1.69462e-05
 1.66805e-05
 1.64167e-05
 1.61547e-05
 1.58949e-05
 1.56373e-05
 1.53822e-05
 1.51301e-05
 1.48825e-05
 1.46432e-05
 1.44302e-05
)


51
(
 2.46354e-05
 2.51864e-05
 2.52902e-05
 2.52361e-05
 2.51063e-05
 2.49347e-05
 2.47380e-05
 2.45251e-05
 2.43013e-05
 2.40702e-05
 2.38338e-05
 2.35937e-05
 2.33509e-05
 2.31064e-05
 2.28605e-05
 2.26138e-05
 2.23666e-05
 2.21191e-05
 2.18717e-05
 2.16243e-05
 2.13773e-05
 2.11306e-05
 2.08843e-05
 2.06387e-05
 2.03936e-05
 2.01491e-05
 1.99054e-05
 1.96624e-05
 1.94201e-05
 1.91786e-05
 1.89380e-05
 1.86982e-05
 1.84593e-05
 1.82212e-05
 1.79841e-05
 1.77478e-05
 1.75126e-05
 1.72783e-05
 1.70450e-05
 1.68128e-05
 1.65817e-05
 1.63519e-05
 1.61233e-05
 1.58963e-05
 1.56710e-05
 1.54478e-05
 1.52274e-05
 1.50109e-05
 1.48007e-05
 1.46020e-05
 1.44302e-05
)


51
(
 2.46354e-05
 2.42741e-05
 2.39239e-05
 2.35844e-05
 2.32551e-05
 2.29355e-05
 2.26253e-05
 2.23240e-05
 2.20312e-05
 2.17466e-05
 2.14698e-05
 2.12005e-05
 2.09385e-05
 2.06834e-05
 2.04350e-05
 2.01929e-05
 1.99571e-05
 1.97271e-05
 1.95029e-05
 1.92841e-05
 1.90707e-05
 1.88623e-05
 1.86589e-05
 1.84602e-05
 1.82662e-05
 1.80765e-05
 1.78912e-05
 1.77099e-05
 1.75327e-05
 1.73594e-05
 1.71897e-05
 1.70238e-05
 1.68613e-05
 1.67022e-05
 1.65464e-05
 1.63938e-05
 1.62443e-05
 1.60978e-05
 1.59542e-05
 1.58135e-05
 1.56755e-05
 1.55401e-05
 1.54074e-05
 1.52771e-05
 1.51493e-05
 1.50239e-05
 1.49008e-05
 1.47799e-05
 1.46612e-05
 1.45447e-05
 1.44302e-05
)


)


5
(

51
(
 2.46354e-05
 2.95345e-05
 2.86928e-05
 2.92400e-05
 2.88039e-05
 3.26863e-05
 3.41111e-05
 3.28589e-05
 3.16876e-05
 3.06100e-05
 2.96223e-05
 2.87174e-05
 2.78994e-05
 2.71736e-05
 2.68486e-05
 2.63077e-05
 2.57881e-05
 2.52882e-05
 2.48066e-05
 2.43420e-05
 2.38931e-05
 2.34588e-05
 2.30384e-05
 2.26312e-05
 2.22358e-05
 2.18519e-05
 2.14786e-05
 2.11153e-05
 2.07613e-05
 2.04164e-05
 2.00792e-05
 1.97504e-05
 1.94286e-05
 1.91135e-05
 1.88048e-05
 1.85023e-05
 1.82052e-05
 1.79133e-05
 1.76261e-05
 1.73433e-05
 1.70646e-05
 1.67896e-05
 1.65180e-05
 1.62493e-05
 1.59834e-05
 1.57200e-05
 1.54588e-05
 1.51993e-05
 1.49416e-05
 1.46852e-05
 1.44302e-05
)


51
(
 2.46354e-05
 2.66222e-05
 2.73104e-05
 2.76881e-05
 2.79020e-05
 2.80030e-05
 2.80169e-05
 2.79602e-05
 2.78449e-05
 2.76804e-05
 2.74742e-05
 2.72329e-05
 2.69617e-05
 2.66656e-05
 2.63486e-05
 2.60143e-05
 2.56660e-05
 2.53065e-05
 2.49384e-05
 2.45639e-05
 2.41849e-05
 2.38033e-05
 2.34206e-05
 2.30382e-05
 2.26572e-05
 2.22787e-05
 2.19036e-05
 2.15324e-05
 2.11660e-05
 2.08046e-05
 2.04487e-05
 2.00985e-05
 1.97542e-05
 1.94158e-05
 1.90833e-05
 1.87567e-05
 1.84359e-05
 1.81207e-05
 1.78108e-05
 1.75061e-05
 1.72062e-05
 1.69109e-05
 1.66199e-05
 1.63328e-05
 1.60493e-05
 1.57691e-05
 1.54920e-05
 1.52179e-05
 1.49468e-05
 1.46806e-05
 1.44302e-05
)


51
(
 2.46354e-05
 2.59753e-05
 2.63422e-05
 2.64669e-05
 2.64831e-05
 2.64356e-05
 2.63446e-05
 2.62210e-05
 2.60713e-05
 2.59002e-05
 2.57108e-05
 2.55058e-05
 2.52871e-05
 2.50565e-05
 2.48154e-05
 2.45650e-05
 2.43065e-05
 2.40408e-05
 2.37689e-05
 2.34913e-05
 2.32090e-05
 2.29224e-05
 2.26322e-05
 2.23390e-05
 2.20432e-05
 2.17452e-05
 2.14456e-05
 2.11445e-05
 2.08425e-05
 2.05398e-05
 2.02366e-05
 1.99333e-05
 1.96302e-05
 1.93273e-05
 1.90249e-05
 1.87233e-05
 1.84225e-05
 1.81227e-05
 1.78240e-05
 1.75266e-05
 1.72305e-05
 1.69360e-05
 1.66429e-05
 1.63516e-05
 1.60622e-05
 1.57748e-05
 1.54899e-05
 1.52082e-05
 1.49313e-05
 1.46643e-05
 1.44302e-05
)


51
(
 2.46354e-05
 2.53429e-05
 2.55262e-05
 2.55248e-05
 2.54341e-05
 2.52935e-05
 2.51220e-05
 2.49301e-05
 2.47240e-05
 2.45076e-05
 2.42836e-05
 2.40536e-05
 2.38190e-05
 2.35807e-05
 2.33395e-05
 2.30958e-05
 2.28502e-05
 2.26029e-05
 2.23543e-05
 2.21045e-05
 2.18538e-05
 2.16023e-05
 2.13502e-05
 2.10975e-05
 2.08444e-05
 2.05910e-05
 2.03372e-05
 2.00833e-05
 1.98293e-05
 1.95752e-05
 1.93210e-05
 1.90669e-05
 1.88128e-05
 1.85589e-05
 1.83052e-05
 1.80516e-05
 1.77983e-05
 1.75454e-05
 1.72928e-05
 1.70407e-05
 1.67891e-05
 1.65382e-05
 1.62882e-05
 1.60392e-05
 1.57915e-05
 1.55458e-05
 1.53028e-05
 1.50640e-05
 1.48323e-05
 1.46146e-05
 1.44302e-05
)


51
(
 2.46354e-05
 2.42741e-05
 2.39239e-05
 2.35844e-05
 2.32551e-05
 2.29355e-05
 2.26253e-05
 2.23240e-05
 2.20312e-05
 2.17466e-05
 2.14698e-05
 2.12005e-05
 2.09385e-05
 2.06834e-05
 2.04350e-05
 2.01929e-05
 1.99571e-05
 1.97271e-05
 1.95029e-05
 1.92841e-05
 1.90707e-05
 1.88623e-05
 1.86589e-05
 1.84602e-05
 1.82662e-05
 1.80765e-05
 1.78912e-05
 1.77099e-05
 1.75327e-05
 1.73594e-05
 1.71897e-05
 1.70238e-05
 1.68613e-05
 1.67022e-05
 1.65464e-05
 1.63938e-05
 1.62443e-05
 1.60978e-05
 1.59542e-05
 1.58135e-05
 1.56755e-05
 1.55401e-05
 1.54074e-05
 1.52771e-05
 1.51493e-05
 1.50239e-05
 1.49008e-05
 1.47799e-05
 1.46612e-05
 1.45447e-05
 1.44302e-05
)


)


5
(

51
(
 2.46354e-05
 3.02481e-05
 3.00130e-05
 3.08884e-05
 3.02693e-05
 3.41608e-05
 3.59874e-05
 3.45731e-05
 3.32524e-05
 3.20401e-05
 3.09319e-05
 2.99193e-05
 2.90074e-05
 2.82022e-05
 2.78639e-05
 2.72728e-05
 2.67058e-05
 2.61612e-05
 2.56371e-05
 2.51320e-05
 2.46446e-05
 2.41735e-05
 2.37179e-05
 2.32771e-05
 2.28493e-05
 2.24345e-05
 2.20313e-05
 2.16391e-05
 2.12573e-05
 2.08854e-05
 2.05220e-05
 2.01678e-05
 1.98212e-05
 1.94819e-05
 1.91496e-05
 1.88240e-05
 1.85043e-05
 1.81900e-05
 1.78809e-05
 1.75764e-05
 1.72762e-05
 1.69799e-05
 1.66872e-05
 1.63974e-05
 1.61104e-05
 1.58261e-05
 1.55438e-05
 1.52633e-05
 1.49843e-05
 1.47066e-05
 1.44302e-05
)


51
(
 2.46354e-05
 2.70201e-05
 2.79126e-05
 2.84363e-05
 2.87600e-05
 2.89439e-05
 2.90197e-05
 2.90080e-05
 2.89237e-05
 2.87786e-05
 2.85822e-05
 2.83424e-05
 2.80661e-05
 2.77589e-05
 2.74260e-05
 2.70716e-05
 2.66998e-05
 2.63138e-05
 2.59168e-05
 2.55115e-05
 2.51002e-05
 2.46851e-05
 2.42680e-05
 2.38506e-05
 2.34343e-05
 2.30203e-05
 2.26097e-05
 2.22034e-05
 2.18021e-05
 2.14064e-05
 2.10166e-05
 2.06331e-05
 2.02561e-05
 1.98857e-05
 1.95219e-05
 1.91646e-05
 1.88138e-05
 1.84691e-05
 1.81303e-05
 1.77972e-05
 1.74694e-05
 1.71466e-05
 1.68284e-05
 1.65144e-05
 1.62042e-05
 1.58974e-05
 1.55938e-05
 1.52931e-05
 1.49957e-05
 1.47035e-05
 1.44302e-05
)


51
(
 2.46354e-05
 2.62466e-05
 2.67395e-05
 2.69525e-05
 2.70377e-05
 2.70464e-05
 2.70016e-05
 2.69162e-05
 2.67979e-05
 2.66522e-05
 2.64832e-05
 2.62938e-05
 2.60866e-05
 2.58637e-05
 2.56269e-05
 2.53778e-05
 2.51176e-05
 2.48477e-05
 2.45691e-05
 2.42827e-05
 2.39894e-05
 2.36901e-05
 2.33854e-05
 2.30760e-05
 2.27626e-05
 2.24457e-05
 2.21257e-05
 2.18032e-05
 2.14787e-05
 2.11524e-05
 2.08248e-05
 2.04962e-05
 2.01669e-05
 1.98372e-05
 1.95073e-05
 1.91775e-05
 1.88480e-05
 1.85189e-05
 1.81905e-05
 1.78630e-05
 1.75363e-05
 1.72108e-05
 1.68865e-05
 1.65636e-05
 1.62423e-05
 1.59229e-05
 1.56058e-05
 1.52920e-05
 1.49836e-05
 1.46868e-05
 1.44302e-05
)


51
(
 2.46354e-05
 2.55091e-05
 2.57768e-05
 2.58316e-05
 2.57829e-05
 2.56757e-05
 2.55317e-05
 2.53628e-05
 2.51760e-05
 2.49759e-05
 2.47655e-05
 2.45468e-05
 2.43214e-05
 2.40903e-05
 2.38545e-05
 2.36145e-05
 2.33710e-05
 2.31243e-05
 2.28749e-05
 2.26229e-05
 2.23687e-05
 2.21124e-05
 2.18543e-05
 2.15944e-05
 2.13330e-05
 2.10702e-05
 2.08061e-05
 2.05407e-05
 2.02742e-05
 2.00067e-05
 1.97382e-05
 1.94689e-05
 1.91987e-05
 1.89278e-05
 1.86562e-05
 1.83840e-05
 1.81113e-05
 1.78382e-05
 1.75646e-05
 1.72909e-05
 1.70170e-05
 1.67431e-05
 1.64695e-05
 1.61964e-05
 1.59242e-05
 1.56537e-05
 1.53857e-05
 1.51222e-05
 1.48669e-05
 1.46282e-05
 1.44302e-05
)


51
(
 2.46354e-05
 2.42741e-05
 2.39239e-05
 2.35844e-05
 2.32551e-05
 2.29355e-05
 2.26253e-05
 2.23240e-05
 2.20312e-05
 2.17466e-05
 2.14698e-05
 2.12005e-05
 2.09385e-05
 2.06834e-05
 2.04350e-05
 2.01929e-05
 1.99571e-05
 1.97271e-05
 1.95029e-05
 1.92841e-05
 1.90707e-05
 1.88623e-05
 1.86589e-05
 1.84602e-05
 1.82662e-05
 1.80765e-05
 1.78912e-05
 1.77099e-05
 1.75327e-05
 1.73594e-05
 1.71897e-05
 1.70238e-05
 1.68613e-05
 1.67022e-05
 1.65464e-05
 1.63938e-05
 1.62443e-05
 1.60978e-05
 1.59542e-05
 1.58135e-05
 1.56755e-05
 1.55401e-05
 1.54074e-05
 1.52771e-05
 1.51493e-05
 1.50239e-05
 1.49008e-05
 1.47799e-05
 1.46612e-05
 1.45447e-05
 1.44302e-05
)


)


5
(

51
(
 2.46354e-05
 3.09777e-05
 3.14899e-05
 3.27317e-05
 3.18954e-05
 3.56428e-05
 3.78638e-05
 3.62874e-05
 3.48172e-05
 3.34702e-05
 3.22414e-05
 3.11212e-05
 3.01155e-05
 2.92308e-05
 2.88792e-05
 2.82380e-05
 2.76236e-05
 2.70341e-05
 2.64675e-05
 2.59220e-05
 2.53961e-05
 2.48881e-05
 2.43974e-05
 2.39230e-05
 2.34629e-05
 2.30170e-05
 2.25839e-05
 2.21630e-05
 2.17532e-05
 2.13544e-05
 2.09648e-05
 2.05851e-05
 2.02139e-05
 1.98504e-05
 1.94945e-05
 1.91458e-05
 1.88034e-05
 1.84668e-05
 1.81357e-05
 1.78095e-05
 1.74879e-05
 1.71703e-05
 1.68563e-05
 1.65455e-05
 1.62375e-05
 1.59322e-05
 1.56289e-05
 1.53272e-05
 1.50271e-05
 1.47281e-05
 1.44302e-05
)


51
(
 2.46354e-05
 2.74476e-05
 2.85616e-05
 2.92416e-05
 2.96805e-05
 2.99499e-05
 3.00881e-05
 3.01207e-05
 3.00662e-05
 2.99389e-05
 2.97505e-05
 2.95105e-05
 2.92270e-05
 2.89070e-05
 2.85562e-05
 2.81799e-05
 2.77827e-05
 2.73684e-05
 2.69407e-05
 2.65026e-05
 2.60571e-05
 2.56065e-05
 2.51531e-05
 2.46987e-05
 2.42451e-05
 2.37938e-05
 2.33459e-05
 2.29025e-05
 2.24645e-05
 2.20325e-05
 2.16071e-05
 2.11887e-05
 2.07775e-05
 2.03736e-05
 1.99770e-05
 1.95877e-05
 1.92054e-05
 1.88301e-05
 1.84613e-05
 1.80987e-05
 1.77420e-05
 1.73906e-05
 1.70443e-05
 1.67024e-05
 1.63645e-05
 1.60302e-05
 1.56991e-05
 1.53710e-05
 1.50462e-05
 1.47271e-05
 1.44302e-05
)


51
(
 2.46354e-05
 2.65344e-05
 2.71628e-05
 2.74713e-05
 2.76310e-05
 2.77000e-05
 2.77048e-05
 2.76601e-05
 2.75752e-05
 2.74565e-05
 2.73088e-05
 2.71358e-05
 2.69407e-05
 2.67259e-05
 2.64936e-05
 2.62457e-05
 2.59838e-05
 2.57094e-05
 2.54238e-05
 2.51282e-05
 2.48235e-05
 2.45108e-05
 2.41909e-05
 2.38646e-05
 2.35327e-05
 2.31958e-05
 2.28545e-05
 2.25095e-05
 2.21611e-05
 2.18100e-05
 2.14565e-05
 2.11011e-05
 2.07441e-05
 2.03858e-05
 2.00267e-05
 1.96669e-05
 1.93068e-05
 1.89465e-05
 1.85862e-05
 1.82263e-05
 1.78668e-05
 1.75080e-05
 1.71500e-05
 1.67930e-05
 1.64372e-05
 1.60831e-05
 1.57312e-05
 1.53826e-05
 1.50400e-05
 1.47108e-05
 1.44302e-05
)


51
(
 2.46354e-05
 2.56844e-05
 2.60414e-05
 2.61562e-05
 2.61528e-05
 2.60817e-05
 2.59676e-05
 2.58237e-05
 2.56582e-05
 2.54762e-05
 2.52809e-05
 2.50749e-05
 2.48599e-05
 2.46371e-05
 2.44076e-05
 2.41722e-05