/*--------------------------------*- C++ -*----------------------------------*\
| =========                 |                                                 |
| \      /  F ield          | OpenFOAM: The Open Source CFD Toolbox           |
|  \    /   O peration      | Version:  7                                     |
|   \  /    A nd            | Web:      http://www.OpenFOAM.com               |
|    \/     M anipulation   |                                                 |
\*---------------------------------------------------------------------------*/
FoamFile 
{   version     2.0;
    format      ascii;
    class       dictionary;
    location    "constant";
    object      LDMtable;
}
// * * * * * * * * * * * * * * * * * * * * * * * * * * * * * * * * * * * * * //

CH2O_table
5
(

51
(

5
(

51
(
 1.00000e-60
 2.20163e-31
 6.90009e-17
 7.66730e-20
 1.13978e-13
 5.36326e-10
 1.19923e-30
 1.39350e-30
 1.67847e-30
 2.06921e-30
 2.49811e-30
 2.86439e-30
 2.91040e-30
 2.86442e-30
 2.76812e-30
 2.62882e-30
 2.47092e-30
 2.31211e-30
 2.18970e-30
 2.09230e-30
 2.01127e-30
 1.93690e-30
 1.85985e-30
 1.77176e-30
 1.69331e-30
 1.62305e-30
 1.56372e-30
 1.50346e-30
 1.44105e-30
 1.38685e-30
 1.34739e-30
 1.31424e-30
 1.26978e-30
 1.21558e-30
 1.15652e-30
 1.09234e-30
 1.02260e-30
 9.49597e-31
 8.73928e-31
 7.98152e-31
 7.22505e-31
 6.48213e-31
 5.75498e-31
 5.03257e-31
 4.31258e-31
 3.59416e-31
 2.87778e-31
 2.16230e-31
 1.44666e-31
 7.28712e-32
 1.00000e-60
)


51
(
 1.00000e-60
 0.00000e+00
 0.00000e+00
 0.00000e+00
 0.00000e+00
 0.00000e+00
 0.00000e+00
 0.00000e+00
 0.00000e+00
 0.00000e+00
 0.00000e+00
 0.00000e+00
 0.00000e+00
 0.00000e+00
 0.00000e+00
 0.00000e+00
 0.00000e+00
 0.00000e+00
 0.00000e+00
 0.00000e+00
 0.00000e+00
 0.00000e+00
 0.00000e+00
 0.00000e+00
 0.00000e+00
 0.00000e+00
 0.00000e+00
 0.00000e+00
 0.00000e+00
 0.00000e+00
 0.00000e+00
 0.00000e+00
 0.00000e+00
 0.00000e+00
 0.00000e+00
 0.00000e+00
 0.00000e+00
 0.00000e+00
 0.00000e+00
 0.00000e+00
 0.00000e+00
 0.00000e+00
 0.00000e+00
 0.00000e+00
 0.00000e+00
 0.00000e+00
 0.00000e+00
 0.00000e+00
 0.00000e+00
 0.00000e+00
 1.00000e-60
)


51
(
 1.00000e-60
 0.00000e+00
 0.00000e+00
 0.00000e+00
 0.00000e+00
 0.00000e+00
 0.00000e+00
 0.00000e+00
 0.00000e+00
 0.00000e+00
 0.00000e+00
 0.00000e+00
 0.00000e+00
 0.00000e+00
 0.00000e+00
 0.00000e+00
 0.00000e+00
 0.00000e+00
 0.00000e+00
 0.00000e+00
 0.00000e+00
 0.00000e+00
 0.00000e+00
 0.00000e+00
 0.00000e+00
 0.00000e+00
 0.00000e+00
 0.00000e+00
 0.00000e+00
 0.00000e+00
 0.00000e+00
 0.00000e+00
 0.00000e+00
 0.00000e+00
 0.00000e+00
 0.00000e+00
 0.00000e+00
 0.00000e+00
 0.00000e+00
 0.00000e+00
 0.00000e+00
 0.00000e+00
 0.00000e+00
 0.00000e+00
 0.00000e+00
 0.00000e+00
 0.00000e+00
 0.00000e+00
 0.00000e+00
 0.00000e+00
 1.00000e-60
)


51
(
 1.00000e-60
 0.00000e+00
 0.00000e+00
 0.00000e+00
 0.00000e+00
 0.00000e+00
 0.00000e+00
 0.00000e+00
 0.00000e+00
 0.00000e+00
 0.00000e+00
 0.00000e+00
 0.00000e+00
 0.00000e+00
 0.00000e+00
 0.00000e+00
 0.00000e+00
 0.00000e+00
 0.00000e+00
 0.00000e+00
 0.00000e+00
 0.00000e+00
 0.00000e+00
 0.00000e+00
 0.00000e+00
 0.00000e+00
 0.00000e+00
 0.00000e+00
 0.00000e+00
 0.00000e+00
 0.00000e+00
 0.00000e+00
 0.00000e+00
 0.00000e+00
 0.00000e+00
 0.00000e+00
 0.00000e+00
 0.00000e+00
 0.00000e+00
 0.00000e+00
 0.00000e+00
 0.00000e+00
 0.00000e+00
 0.00000e+00
 0.00000e+00
 0.00000e+00
 0.00000e+00
 0.00000e+00
 0.00000e+00
 0.00000e+00
 1.00000e-60
)


51
(
 1.00000e-60
 1.00000e-60
 1.00000e-60
 1.00000e-60
 1.00000e-60
 1.00000e-60
 1.00000e-60
 1.00000e-60
 1.00000e-60
 1.00000e-60
 1.00000e-60
 1.00000e-60
 1.00000e-60
 1.00000e-60
 1.00000e-60
 1.00000e-60
 1.00000e-60
 1.00000e-60
 1.00000e-60
 1.00000e-60
 1.00000e-60
 1.00000e-60
 1.00000e-60
 1.00000e-60
 1.00000e-60
 1.00000e-60
 1.00000e-60
 1.00000e-60
 1.00000e-60
 1.00000e-60
 1.00000e-60
 1.00000e-60
 1.00000e-60
 1.00000e-60
 1.00000e-60
 1.00000e-60
 1.00000e-60
 1.00000e-60
 1.00000e-60
 1.00000e-60
 1.00000e-60
 1.00000e-60
 1.00000e-60
 1.00000e-60
 1.00000e-60
 1.00000e-60
 1.00000e-60
 1.00000e-60
 1.00000e-60
 1.00000e-60
 1.00000e-60
)


)


5
(

51
(
 1.00000e-60
 8.92595e-05
 9.04979e-07
 1.19338e-06
 1.05702e-06
 2.12312e-06
 2.69762e-04
 2.65050e-04
 2.59623e-04
 2.54543e-04
 2.50652e-04
 2.48350e-04
 2.46003e-04
 2.41337e-04
 3.36320e-05
 3.27085e-05
 3.17829e-05
 3.08555e-05
 2.99267e-05
 2.89967e-05
 2.80658e-05
 2.71341e-05
 2.62017e-05
 2.52688e-05
 2.43353e-05
 2.34015e-05
 2.24672e-05
 2.15327e-05
 2.05979e-05
 1.96629e-05
 1.87277e-05
 1.77923e-05
 1.68567e-05
 1.59210e-05
 1.49851e-05
 1.40491e-05
 1.31130e-05
 1.21768e-05
 1.12405e-05
 1.03041e-05
 9.36758e-06
 8.43104e-06
 7.49443e-06
 6.55777e-06
 5.62106e-06
 4.68429e-06
 3.74749e-06
 2.81066e-06
 1.87379e-06
 9.36904e-07
 1.00000e-60
)


51
(
 1.00000e-60
 3.22989e-05
 4.45712e-05
 5.29279e-05
 5.97365e-05
 6.56201e-05
 7.07656e-05
 7.52208e-05
 7.89875e-05
 8.20560e-05
 8.44199e-05
 8.60815e-05
 8.70541e-05
 8.73622e-05
 8.70400e-05
 8.61307e-05
 8.46841e-05
 8.27551e-05
 8.04020e-05
 7.76849e-05
 7.46639e-05
 7.13983e-05
 6.79449e-05
 6.43578e-05
 6.06868e-05
 5.69776e-05
 5.32712e-05
 4.96035e-05
 4.60055e-05
 4.25032e-05
 3.91177e-05
 3.58655e-05
 3.27589e-05
 2.98063e-05
 2.70123e-05
 2.43785e-05
 2.19037e-05
 1.95843e-05
 1.74147e-05
 1.53878e-05
 1.34953e-05
 1.17278e-05
 1.00754e-05
 8.52816e-06
 7.07579e-06
 5.70845e-06
 4.41697e-06
 3.19352e-06
 2.03350e-06
 9.43064e-07
 1.00000e-60
)


51
(
 1.00000e-60
 2.46617e-05
 3.43103e-05
 4.00312e-05
 4.40530e-05
 4.71305e-05
 4.95888e-05
 5.15909e-05
 5.32273e-05
 5.45529e-05
 5.56035e-05
 5.64038e-05
 5.69724e-05
 5.73238e-05
 5.74703e-05
 5.74226e-05
 5.71906e-05
 5.67836e-05
 5.62107e-05
 5.54807e-05
 5.46024e-05
 5.35846e-05
 5.24359e-05
 5.11652e-05
 4.97810e-05
 4.82920e-05
 4.67068e-05
 4.50340e-05
 4.32819e-05
 4.14587e-05
 3.95726e-05
 3.76315e-05
 3.56431e-05
 3.36149e-05
 3.15541e-05
 2.94677e-05
 2.73624e-05
 2.52447e-05
 2.31207e-05
 2.09964e-05
 1.88774e-05
 1.67692e-05
 1.46771e-05
 1.26068e-05
 1.05637e-05
 8.55450e-06
 6.58778e-06
 4.67697e-06
 2.84899e-06
 1.17751e-06
 1.00000e-60
)


51
(
 1.00000e-60
 1.56722e-05
 2.34762e-05
 2.82238e-05
 3.13995e-05
 3.36462e-05
 3.52879e-05
 3.65055e-05
 3.74085e-05
 3.80667e-05
 3.85272e-05
 3.88226e-05
 3.89767e-05
 3.90070e-05
 3.89271e-05
 3.87474e-05
 3.84761e-05
 3.81203e-05
 3.76854e-05
 3.71762e-05
 3.65969e-05
 3.59510e-05
 3.52417e-05
 3.44718e-05
 3.36438e-05
 3.27602e-05
 3.18231e-05
 3.08346e-05
 2.97967e-05
 2.87114e-05
 2.75803e-05
 2.64054e-05
 2.51884e-05
 2.39310e-05
 2.26350e-05
 2.13022e-05
 1.99345e-05
 1.85336e-05
 1.71018e-05
 1.56411e-05
 1.41542e-05
 1.26439e-05
 1.11138e-05
 9.56822e-06
 8.01337e-06
 6.45799e-06
 4.91581e-06
 3.41043e-06
 1.98753e-06
 7.50997e-07
 1.00000e-60
)


51
(
 1.00000e-60
 1.00000e-60
 1.00000e-60
 1.00000e-60
 1.00000e-60
 1.00000e-60
 1.00000e-60
 1.00000e-60
 1.00000e-60
 1.00000e-60
 1.00000e-60
 1.00000e-60
 1.00000e-60
 1.00000e-60
 1.00000e-60
 1.00000e-60
 1.00000e-60
 1.00000e-60
 1.00000e-60
 1.00000e-60
 1.00000e-60
 1.00000e-60
 1.00000e-60
 1.00000e-60
 1.00000e-60
 1.00000e-60
 1.00000e-60
 1.00000e-60
 1.00000e-60
 1.00000e-60
 1.00000e-60
 1.00000e-60
 1.00000e-60
 1.00000e-60
 1.00000e-60
 1.00000e-60
 1.00000e-60
 1.00000e-60
 1.00000e-60
 1.00000e-60
 1.00000e-60
 1.00000e-60
 1.00000e-60
 1.00000e-60
 1.00000e-60
 1.00000e-60
 1.00000e-60
 1.00000e-60
 1.00000e-60
 1.00000e-60
 1.00000e-60
)


)


5
(

51
(
 1.00000e-60
 1.78519e-04
 9.23771e-06
 1.21817e-05
 1.07736e-05
 1.26795e-05
 5.39525e-04
 5.30101e-04
 5.19245e-04
 5.09087e-04
 5.01304e-04
 4.96700e-04
 4.92006e-04
 4.82675e-04
 6.72639e-05
 6.54170e-05
 6.35658e-05
 6.17110e-05
 5.98534e-05
 5.79934e-05
 5.61316e-05
 5.42682e-05
 5.24034e-05
 5.05375e-05
 4.86706e-05
 4.68029e-05
 4.49345e-05
 4.30655e-05
 4.11959e-05
 3.93258e-05
 3.74554e-05
 3.55846e-05
 3.37134e-05
 3.18419e-05
 2.99702e-05
 2.80982e-05
 2.62260e-05
 2.43535e-05
 2.24809e-05
 2.06081e-05
 1.87352e-05
 1.68621e-05
 1.49889e-05
 1.31155e-05
 1.12421e-05
 9.36859e-06
 7.49498e-06
 5.62132e-06
 3.74759e-06
 1.87381e-06
 1.00000e-60
)


51
(
 1.00000e-60
 6.48688e-05
 8.97707e-05
 1.06796e-04
 1.20664e-04
 1.32623e-04
 1.43050e-04
 1.52047e-04
 1.59624e-04
 1.65768e-04
 1.70473e-04
 1.73748e-04
 1.75627e-04
 1.76163e-04
 1.75427e-04
 1.73512e-04
 1.70518e-04
 1.66558e-04
 1.61752e-04
 1.56221e-04
 1.50087e-04
 1.43469e-04
 1.36481e-04
 1.29232e-04
 1.21822e-04
 1.14342e-04
 1.06873e-04
 9.94888e-05
 9.22494e-05
 8.52066e-05
 7.84023e-05
 7.18694e-05
 6.56317e-05
 5.97056e-05
 5.41000e-05
 4.88176e-05
 4.38556e-05
 3.92066e-05
 3.48591e-05
 3.07986e-05
 2.70079e-05
 2.34685e-05
 2.01604e-05
 1.70632e-05
 1.41564e-05
 1.14201e-05
 8.83600e-06
 6.38824e-06
 4.06759e-06
 1.88632e-06
 1.00000e-60
)


51
(
 1.00000e-60
 4.94091e-05
 6.88373e-05
 8.04081e-05
 8.85699e-05
 9.48298e-05
 9.98378e-05
 1.03920e-04
 1.07258e-04
 1.09963e-04
 1.12106e-04
 1.13739e-04
 1.14899e-04
 1.15616e-04
 1.15915e-04
 1.15819e-04
 1.15348e-04
 1.14521e-04
 1.13358e-04
 1.11876e-04
 1.10094e-04
 1.08029e-04
 1.05701e-04
 1.03125e-04
 1.00322e-04
 9.73067e-05
 9.40985e-05
 9.07143e-05
 8.71712e-05
 8.34860e-05
 7.96750e-05
 7.57545e-05
 7.17400e-05
 6.76466e-05
 6.34889e-05
 5.92812e-05
 5.50368e-05
 5.07689e-05
 4.64897e-05
 4.22113e-05
 3.79450e-05
 3.37018e-05
 2.94925e-05
 2.53280e-05
 2.12197e-05
 1.71807e-05
 1.32283e-05
 9.38940e-06
 5.71801e-06
 2.36216e-06
 1.00000e-60
)


51
(
 1.00000e-60
 3.13645e-05
 4.70105e-05
 5.65483e-05
 6.29426e-05
 6.74775e-05
 7.08001e-05
 7.32720e-05
 7.51117e-05
 7.64589e-05
 7.74076e-05
 7.80233e-05
 7.83535e-05
 7.84335e-05
 7.82901e-05
 7.79445e-05
 7.74134e-05
 7.67105e-05
 7.58472e-05
 7.48333e-05
 7.36768e-05
 7.23850e-05
 7.09645e-05
 6.94208e-05
 6.77593e-05
 6.59847e-05
 6.41017e-05
 6.21144e-05
 6.00269e-05
 5.78430e-05
 5.55665e-05
 5.32011e-05
 5.07504e-05
 4.82179e-05
 4.56073e-05
 4.29222e-05
 4.01663e-05
 3.73436e-05
 3.44582e-05
 3.15147e-05
 2.85181e-05
 2.54744e-05
 2.23907e-05
 1.92760e-05
 1.61426e-05
 1.30083e-05
 9.90079e-06
 6.86769e-06
 4.00116e-06
 1.51075e-06
 1.00000e-60
)


51
(
 1.00000e-60
 1.00000e-60
 1.00000e-60
 1.00000e-60
 1.00000e-60
 1.00000e-60
 1.00000e-60
 1.00000e-60
 1.00000e-60
 1.00000e-60
 1.00000e-60
 1.00000e-60
 1.00000e-60
 1.00000e-60
 1.00000e-60
 1.00000e-60
 1.00000e-60
 1.00000e-60
 1.00000e-60
 1.00000e-60
 1.00000e-60
 1.00000e-60
 1.00000e-60
 1.00000e-60
 1.00000e-60
 1.00000e-60
 1.00000e-60
 1.00000e-60
 1.00000e-60
 1.00000e-60
 1.00000e-60
 1.00000e-60
 1.00000e-60
 1.00000e-60
 1.00000e-60
 1.00000e-60
 1.00000e-60
 1.00000e-60
 1.00000e-60
 1.00000e-60
 1.00000e-60
 1.00000e-60
 1.00000e-60
 1.00000e-60
 1.00000e-60
 1.00000e-60
 1.00000e-60
 1.00000e-60
 1.00000e-60
 1.00000e-60
 1.00000e-60
)


)


5
(

51
(
 1.00000e-60
 2.67778e-04
 2.56544e-05
 3.38304e-05
 2.99141e-05
 3.20254e-05
 8.09287e-04
 7.95151e-04
 7.78868e-04
 7.63630e-04
 7.51956e-04
 7.45050e-04
 7.38009e-04
 7.24012e-04
 1.00896e-04
 9.81255e-05
 9.53486e-05
 9.25665e-05
 8.97800e-05
 8.69902e-05
 8.41974e-05
 8.14023e-05
 7.86052e-05
 7.58063e-05
 7.30059e-05
 7.02044e-05
 6.74017e-05
 6.45982e-05
 6.17938e-05
 5.89888e-05
 5.61831e-05
 5.33768e-05
 5.05701e-05
 4.77629e-05
 4.49553e-05
 4.21473e-05
 3.93389e-05
 3.65303e-05
 3.37214e-05
 3.09122e-05
 2.81028e-05
 2.52931e-05
 2.24833e-05
 1.96733e-05
 1.68632e-05
 1.40529e-05
 1.12425e-05
 8.43198e-06
 5.62138e-06
 2.81071e-06
 1.00000e-60
)


51
(
 1.00000e-60
 9.78390e-05
 1.35884e-04
 1.62012e-04
 1.83278e-04
 2.01556e-04
 2.17427e-04
 2.31058e-04
 2.42478e-04
 2.51683e-04
 2.58675e-04
 2.63481e-04
 2.66160e-04
 2.66801e-04
 2.65521e-04
 2.62461e-04
 2.57782e-04
 2.51656e-04
 2.44265e-04
 2.35794e-04
 2.26427e-04
 2.16346e-04
 2.05722e-04
 1.94718e-04
 1.83484e-04
 1.72158e-04
 1.60861e-04
 1.49701e-04
 1.38768e-04
 1.28140e-04
 1.17878e-04
 1.08031e-04
 9.86337e-05
 8.97099e-05
 8.12724e-05
 7.33245e-05
 6.58614e-05
 5.88713e-05
 5.23364e-05
 4.62346e-05
 4.05398e-05
 3.52237e-05
 3.02560e-05
 2.56058e-05
 2.12423e-05
 1.71354e-05
 1.32573e-05
 9.58427e-06
 6.10233e-06
 2.82978e-06
 1.00000e-60
)


51
(
 1.00000e-60
 7.42812e-05
 1.03678e-04
 1.21284e-04
 1.33753e-04
 1.43342e-04
 1.51026e-04
 1.57294e-04
 1.62421e-04
 1.66575e-04
 1.69865e-04
 1.72369e-04
 1.74147e-04
 1.75243e-04
 1.75698e-04
 1.75547e-04
 1.74822e-04
 1.73554e-04
 1.71771e-04
 1.69503e-04
 1.66778e-04
 1.63624e-04
 1.60069e-04
 1.56140e-04
 1.51866e-04
 1.47273e-04
 1.42389e-04
 1.37240e-04
 1.31852e-04
 1.26252e-04
 1.20463e-04
 1.14511e-04
 1.08420e-04
 1.02212e-04
 9.59102e-05
 8.95351e-05
 8.31074e-05
 7.66469e-05
 7.01722e-05
 6.37013e-05
 5.72514e-05
 5.08390e-05
 4.44804e-05
 3.81918e-05
 3.19903e-05
 2.58958e-05
 1.99340e-05
 1.41455e-05
 8.61165e-06
 3.55556e-06
 1.00000e-60
)


51
(
 1.00000e-60
 4.70861e-05
 7.06289e-05
 8.50183e-05
 9.46929e-05
 1.01576e-04
 1.06635e-04
 1.10413e-04
 1.13237e-04
 1.15317e-04
 1.16793e-04
 1.17764e-04
 1.18301e-04
 1.18457e-04
 1.18272e-04
 1.17780e-04
 1.17004e-04
 1.15965e-04
 1.14682e-04
 1.13168e-04
 1.11436e-04
 1.09498e-04
 1.07362e-04
 1.05039e-04
 1.02535e-04
 9.98584e-05
 9.70161e-05
 9.40145e-05
 9.08600e-05
 8.75585e-05
 8.41158e-05
 8.05375e-05
 7.68292e-05
 7.29964e-05
 6.90447e-05
 6.49797e-05
 6.08072e-05
 5.65332e-05
 5.21640e-05
 4.77067e-05
 4.31690e-05
 3.85598e-05
 3.38902e-05
 2.91739e-05
 2.44296e-05
 1.96841e-05
 1.49797e-05
 1.03884e-05
 6.05011e-06
 2.28235e-06
 1.00000e-60
)


51
(
 1.00000e-60
 1.00000e-60
 1.00000e-60
 1.00000e-60
 1.00000e-60
 1.00000e-60
 1.00000e-60
 1.00000e-60
 1.00000e-60
 1.00000e-60
 1.00000e-60
 1.00000e-60
 1.00000e-60
 1.00000e-60
 1.00000e-60
 1.00000e-60
 1.00000e-60
 1.00000e-60
 1.00000e-60
 1.00000e-60
 1.00000e-60
 1.00000e-60
 1.00000e-60
 1.00000e-60
 1.00000e-60
 1.00000e-60
 1.00000e-60
 1.00000e-60
 1.00000e-60
 1.00000e-60
 1.00000e-60
 1.00000e-60
 1.00000e-60
 1.00000e-60
 1.00000e-60
 1.00000e-60
 1.00000e-60
 1.00000e-60
 1.00000e-60
 1.00000e-60
 1.00000e-60
 1.00000e-60
 1.00000e-60
 1.00000e-60
 1.00000e-60
 1.00000e-60
 1.00000e-60
 1.00000e-60
 1.00000e-60
 1.00000e-60
 1.00000e-60
)


)


5
(

51
(
 1.00000e-60
 3.57038e-04
 4.93766e-05
 6.51127e-05
 5.75709e-05
 5.93084e-05
 1.07905e-03
 1.06020e-03
 1.03849e-03
 1.01817e-03
 1.00261e-03
 9.93400e-04
 9.84012e-04
 9.65349e-04
 1.34528e-04
 1.30834e-04
 1.27132e-04
 1.23422e-04
 1.19707e-04
 1.15987e-04
 1.12263e-04
 1.08536e-04
 1.04807e-04
 1.01075e-04
 9.73413e-05
 9.36058e-05
 8.98690e-05
 8.61309e-05
 8.23918e-05
 7.86517e-05
 7.49108e-05
 7.11691e-05
 6.74268e-05
 6.36839e-05
 5.99404e-05
 5.61964e-05
 5.24519e-05
 4.87071e-05
 4.49618e-05
 4.12162e-05
 3.74703e-05
 3.37242e-05
 2.99777e-05
 2.62311e-05
 2.24842e-05
 1.87372e-05
 1.49900e-05
 1.12426e-05
 7.49517e-06
 3.74762e-06
 1.00000e-60
)


51
(
 1.00000e-60
 1.31170e-04
 1.82822e-04
 2.18445e-04
 2.47412e-04
 2.72231e-04
 2.93693e-04
 3.12042e-04
 3.27336e-04
 3.39588e-04
 3.48818e-04
 3.55079e-04
 3.58462e-04
 3.59098e-04
 3.57155e-04
 3.52828e-04
 3.46339e-04
 3.37922e-04
 3.27827e-04
 3.16301e-04
 3.03596e-04
 2.89951e-04
 2.75599e-04
 2.60756e-04
 2.45624e-04
 2.30384e-04
 2.15198e-04
 2.00208e-04
 1.85535e-04
 1.71281e-04
 1.57526e-04
 1.44335e-04
 1.31752e-04
 1.19809e-04
 1.08521e-04
 9.78928e-05
 8.79159e-05
 7.85742e-05
 6.98435e-05
 6.16935e-05
 5.40891e-05
 4.69918e-05
 4.03611e-05
 3.41553e-05
 2.83329e-05
 2.28538e-05
 1.76806e-05
 1.27815e-05
 8.13765e-06
 3.77342e-06
 1.00000e-60
)


51
(
 1.00000e-60
 9.92661e-05
 1.38803e-04
 1.62610e-04
 1.79537e-04
 1.92588e-04
 2.03061e-04
 2.11612e-04
 2.18607e-04
 2.24272e-04
 2.28758e-04
 2.32170e-04
 2.34587e-04
 2.36076e-04
 2.36690e-04
 2.36478e-04
 2.35486e-04
 2.33755e-04
 2.31327e-04
 2.28242e-04
 2.24538e-04
 2.20256e-04
 2.15433e-04
 2.10107e-04
 2.04316e-04
 1.98099e-04
 1.91490e-04
 1.84528e-04
 1.77248e-04
 1.69684e-04
 1.61870e-04
 1.53841e-04
 1.45627e-04
 1.37261e-04
 1.28771e-04
 1.20187e-04
 1.11536e-04
 1.02844e-04
 9.41377e-05
 8.54398e-05
 7.67735e-05
 6.81611e-05
 5.96240e-05
 5.11842e-05
 4.28644e-05
 3.46911e-05
 2.66985e-05
 1.89410e-05
 1.15275e-05
 4.75686e-06
 1.00000e-60
)


51
(
 1.00000e-60
 6.28341e-05
 9.43231e-05
 1.13620e-04
 1.26630e-04
 1.35914e-04
 1.42761e-04
 1.47893e-04
 1.51745e-04
 1.54596e-04
 1.56634e-04
 1.57992e-04
 1.58763e-04
 1.59019e-04
 1.58814e-04
 1.58191e-04
 1.57184e-04
 1.55820e-04
 1.54124e-04
 1.52115e-04
 1.49810e-04
 1.47224e-04
 1.44370e-04
 1.41261e-04
 1.37907e-04
 1.34318e-04
 1.30504e-04
 1.26475e-04
 1.22238e-04
 1.17801e-04
 1.13173e-04
 1.08362e-04
 1.03375e-04
 9.82188e-05
 9.29022e-05
 8.74324e-05
 8.18175e-05
 7.60655e-05
 7.01853e-05
 6.41862e-05
 5.80788e-05
 5.18755e-05
 4.55908e-05
 3.92435e-05
 3.28589e-05
 2.64733e-05
 2.01433e-05
 1.39665e-05
 8.13096e-06
 3.06464e-06
 1.00000e-60
)


51
(
 1.00000e-60
 1.00000e-60
 1.00000e-60
 1.00000e-60
 1.00000e-60
 1.00000e-60
 1.00000e-60
 1.00000e-60
 1.00000e-60
 1.00000e-60
 1.00000e-60
 1.00000e-60
 1.00000e-60
 1.00000e-60
 1.00000e-60
 1.00000e-60
 1.00000e-60
 1.00000e-60
 1.00000e-60
 1.00000e-60
 1.00000e-60
 1.00000e-60
 1.00000e-60
 1.00000e-60
 1.00000e-60
 1.00000e-60
 1.00000e-60
 1.00000e-60
 1.00000e-60
 1.00000e-60
 1.00000e-60
 1.00000e-60
 1.00000e-60
 1.00000e-60
 1.00000e-60
 1.00000e-60
 1.00000e-60
 1.00000e-60
 1.00000e-60
 1.00000e-60
 1.00000e-60
 1.00000e-60
 1.00000e-60
 1.00000e-60
 1.00000e-60
 1.00000e-60
 1.00000e-60
 1.00000e-60
 1.00000e-60
 1.00000e-60
 1.00000e-60
)


)


5
(

51
(
 1.00000e-60
 4.23312e-04
 7.96257e-05
 1.05002e-04
 9.28364e-05
 9.36758e-05
 1.34881e-03
 1.32525e-03
 1.29811e-03
 1.27272e-03
 1.25326e-03
 1.24175e-03
 1.23002e-03
 1.20669e-03
 1.68160e-04
 1.63543e-04
 1.58914e-04
 1.54277e-04
 1.49633e-04
 1.44984e-04
 1.40329e-04
 1.35671e-04
 1.31009e-04
 1.26344e-04
 1.21677e-04
 1.17007e-04
 1.12336e-04
 1.07664e-04
 1.02990e-04
 9.83146e-05
 9.36385e-05
 8.89614e-05
 8.42835e-05
 7.96048e-05
 7.49255e-05
 7.02455e-05
 6.55649e-05
 6.08838e-05
 5.62023e-05
 5.15203e-05
 4.68379e-05
 4.21552e-05
 3.74722e-05
 3.27889e-05
 2.81053e-05
 2.34215e-05
 1.87375e-05
 1.40533e-05
 9.36896e-06
 4.68452e-06
 1.00000e-60
)


51
(
 1.00000e-60
 1.58286e-04
 2.23504e-04
 2.69524e-04
 3.07254e-04
 3.39618e-04
 3.67555e-04
 3.91366e-04
 4.11144e-04
 4.26930e-04
 4.38779e-04
 4.46782e-04
 4.51080e-04
 4.51859e-04
 4.49348e-04
 4.43808e-04
 4.35531e-04
 4.24823e-04
 4.12003e-04
 3.97392e-04
 3.81307e-04
 3.64054e-04
 3.45926e-04
 3.27198e-04
 3.08120e-04
 2.88922e-04
 2.69806e-04
 2.50949e-04
 2.32502e-04
 2.14590e-04
 1.97316e-04
 1.80757e-04
 1.64968e-04
 1.49988e-04
 1.35835e-04
 1.22513e-04
 1.10012e-04
 9.83100e-05
 8.73763e-05
 7.71722e-05
 6.76534e-05
 5.87712e-05
 5.04744e-05
 4.27107e-05
 3.54277e-05
 2.85751e-05
 2.21057e-05
 1.59797e-05
 1.01735e-05
 4.71723e-06
 1.00000e-60
)


51
(
 1.00000e-60
 1.18684e-04
 1.67199e-04
 1.97103e-04
 2.18767e-04
 2.35713e-04
 2.49470e-04
 2.60812e-04
 2.70176e-04
 2.77834e-04
 2.83967e-04
 2.88707e-04
 2.92154e-04
 2.94391e-04
 2.95489e-04
 2.95511e-04
 2.94517e-04
 2.92563e-04
 2.89703e-04
 2.85991e-04
 2.81477e-04
 2.76215e-04
 2.70253e-04
 2.63643e-04
 2.56435e-04
 2.48676e-04
 2.40416e-04
 2.31701e-04
 2.22578e-04
 2.13093e-04
 2.03288e-04
 1.93207e-04
 1.82892e-04
 1.72381e-04
 1.61715e-04
 1.50928e-04
 1.40057e-04
 1.29135e-04
 1.18194e-04
 1.07265e-04
 9.63765e-05
 8.55569e-05
 7.48336e-05
 6.42339e-05
 5.37868e-05
 4.35252e-05
 3.34926e-05
 2.37571e-05
 1.44553e-05
 5.96254e-06
 1.00000e-60
)


51
(
 1.00000e-60
 7.47224e-05
 1.12546e-04
 1.35993e-04
 1.52004e-04
 1.63587e-04
 1.72257e-04
 1.78865e-04
 1.83922e-04
 1.87758e-04
 1.90595e-04
 1.92589e-04
 1.93851e-04
 1.94467e-04
 1.94502e-04
 1.94006e-04
 1.93021e-04
 1.91581e-04
 1.89714e-04
 1.87444e-04
 1.84792e-04
 1.81777e-04
 1.78416e-04
 1.74724e-04
 1.70714e-04
 1.66399e-04
 1.61792e-04
 1.56904e-04
 1.51746e-04
 1.46329e-04
 1.40662e-04
 1.34756e-04
 1.28621e-04
 1.22267e-04
 1.15703e-04
 1.08939e-04
 1.01986e-04
 9.48535e-05
 8.75538e-05
 8.00987e-05
 7.25018e-05
 6.47786e-05
 5.69478e-05
 4.90334e-05
 4.10670e-05
 3.30945e-05
 2.51872e-05
 1.74673e-05
 1.01708e-05
 3.83385e-06
 1.00000e-60
)


51
(
 1.00000e-60
 1.00000e-60
 1.00000e-60
 1.00000e-60
 1.00000e-60
 1.00000e-60
 1.00000e-60
 1.00000e-60
 1.00000e-60
 1.00000e-60
 1.00000e-60
 1.00000e-60
 1.00000e-60
 1.00000e-60
 1.00000e-60
 1.00000e-60
 1.00000e-60
 1.00000e-60
 1.00000e-60
 1.00000e-60
 1.00000e-60
 1.00000e-60
 1.00000e-60
 1.00000e-60
 1.00000e-60
 1.00000e-60
 1.00000e-60
 1.00000e-60
 1.00000e-60
 1.00000e-60
 1.00000e-60
 1.00000e-60
 1.00000e-60
 1.00000e-60
 1.00000e-60
 1.00000e-60
 1.00000e-60
 1.00000e-60
 1.00000e-60
 1.00000e-60
 1.00000e-60
 1.00000e-60
 1.00000e-60
 1.00000e-60
 1.00000e-60
 1.00000e-60
 1.00000e-60
 1.00000e-60
 1.00000e-60
 1.00000e-60
 1.00000e-60
)


)


5
(

51
(
 1.00000e-60
 4.56755e-04
 1.15623e-04
 1.52472e-04
 1.34803e-04
 1.34275e-04
 1.61857e-03
 1.59030e-03
 1.55774e-03
 1.52726e-03
 1.50391e-03
 1.49010e-03
 1.47602e-03
 1.44802e-03
 2.01792e-04
 1.96251e-04
 1.90697e-04
 1.85133e-04
 1.79560e-04
 1.73980e-04
 1.68395e-04
 1.62805e-04
 1.57210e-04
 1.51613e-04
 1.46012e-04
 1.40409e-04
 1.34803e-04
 1.29196e-04
 1.23588e-04
 1.17978e-04
 1.12366e-04
 1.06754e-04
 1.01140e-04
 9.55258e-05
 8.99106e-05
 8.42946e-05
 7.86779e-05
 7.30606e-05
 6.74427e-05
 6.18244e-05
 5.62055e-05
 5.05862e-05
 4.49666e-05
 3.93466e-05
 3.37264e-05
 2.81058e-05
 2.24849e-05
 1.68640e-05
 1.12428e-05
 5.62142e-06
 1.00000e-60
)


51
(
 1.00000e-60
 1.76500e-04
 2.55007e-04
 3.12511e-04
 3.60351e-04
 4.01570e-04
 4.37153e-04
 4.67433e-04
 4.92538e-04
 5.12550e-04
 5.27574e-04
 5.37760e-04
 5.43314e-04
 5.44493e-04
 5.41603e-04
 5.34986e-04
 5.25010e-04
 5.12067e-04
 4.96551e-04
 4.78863e-04
 4.59391e-04
 4.38514e-04
 4.16588e-04
 3.93945e-04
 3.70893e-04
 3.47707e-04
 3.24631e-04
 3.01879e-04
 2.79631e-04
 2.58040e-04
 2.37224e-04
 2.17277e-04
 1.98267e-04
 1.80235e-04
 1.63204e-04
 1.47178e-04
 1.32144e-04
 1.18074e-04
 1.04931e-04
 9.26681e-05
 8.12308e-05
 7.05604e-05
 6.05950e-05
 5.12713e-05
 4.25262e-05
 3.42988e-05
 2.65324e-05
 1.91789e-05
 1.22098e-05
 5.66118e-06
 1.00000e-60
)


51
(
 1.00000e-60
 1.30228e-04
 1.86010e-04
 2.21786e-04
 2.48505e-04
 2.69894e-04
 2.87577e-04
 3.02382e-04
 3.14782e-04
 3.25077e-04
 3.33470e-04
 3.40113e-04
 3.45124e-04
 3.48604e-04
 3.50641e-04
 3.51314e-04
 3.50698e-04
 3.48866e-04
 3.45886e-04
 3.41828e-04
 3.36758e-04
 3.30741e-04
 3.23844e-04
 3.16129e-04
 3.07662e-04
 2.98503e-04
 2.88714e-04
 2.78354e-04
 2.67482e-04
 2.56156e-04
 2.44430e-04
 2.32357e-04
 2.19990e-04
 2.07378e-04
 1.94569e-04
 1.81609e-04
 1.68541e-04
 1.55406e-04
 1.42245e-04
 1.29095e-04
 1.15992e-04
 1.02970e-04
 9.00626e-05
 7.73037e-05
 6.47282e-05
 5.23765e-05
 4.03008e-05
 2.85835e-05
 1.73895e-05
 7.17067e-06
 1.00000e-60
)


51
(
 1.00000e-60
 8.11758e-05
 1.23048e-04
 1.49556e-04
 1.68069e-04
 1.81780e-04
 1.92301e-04
 2.00534e-04
 2.07027e-04
 2.12130e-04
 2.16080e-04
 2.19046e-04
 2.21149e-04
 2.22480e-04
 2.23110e-04
 2.23095e-04
 2.22482e-04
 2.21308e-04
 2.19606e-04
 2.17402e-04
 2.14722e-04
 2.11586e-04
 2.08015e-04
 2.04027e-04
 1.99638e-04
 1.94864e-04
 1.89719e-04
 1.84218e-04
 1.78373e-04
 1.72199e-04
 1.65708e-04
 1.58913e-04
 1.51825e-04
 1.44457e-04
 1.36821e-04
 1.28930e-04
 1.20797e-04
 1.12435e-04
 1.03858e-04
 9.50800e-05
 8.61192e-05
 7.69942e-05
 6.77281e-05
 5.83496e-05
 4.88974e-05
 3.94267e-05
 3.00230e-05
 2.08328e-05
 1.21382e-05
 4.57966e-06
 1.00000e-60
)


51
(
 1.00000e-60
 1.00000e-60
 1.00000e-60
 1.00000e-60
 1.00000e-60
 1.00000e-60
 1.00000e-60
 1.00000e-60
 1.00000e-60
 1.00000e-60
 1.00000e-60
 1.00000e-60
 1.00000e-60
 1.00000e-60
 1.00000e-60
 1.00000e-60
 1.00000e-60
 1.00000e-60
 1.00000e-60
 1.00000e-60
 1.00000e-60
 1.00000e-60
 1.00000e-60
 1.00000e-60
 1.00000e-60
 1.00000e-60
 1.00000e-60
 1.00000e-60
 1.00000e-60
 1.00000e-60
 1.00000e-60
 1.00000e-60
 1.00000e-60
 1.00000e-60
 1.00000e-60
 1.00000e-60
 1.00000e-60
 1.00000e-60
 1.00000e-60
 1.00000e-60
 1.00000e-60
 1.00000e-60
 1.00000e-60
 1.00000e-60
 1.00000e-60
 1.00000e-60
 1.00000e-60
 1.00000e-60
 1.00000e-60
 1.00000e-60
 1.00000e-60
)


)


5
(

51
(
 1.00000e-60
 4.83341e-04
 1.56591e-04
 2.06495e-04
 1.82563e-04
 1.80254e-04
 1.88834e-03
 1.85535e-03
 1.81736e-03
 1.78180e-03
 1.75456e-03
 1.73845e-03
 1.72202e-03
 1.68936e-03
 2.35424e-04
 2.28960e-04
 2.22480e-04
 2.15988e-04
 2.09487e-04
 2.02977e-04
 1.96461e-04
 1.89939e-04
 1.83412e-04
 1.76881e-04
 1.70347e-04
 1.63810e-04
 1.57271e-04
 1.50729e-04
 1.44186e-04
 1.37640e-04
 1.31094e-04
 1.24546e-04
 1.17997e-04
 1.11447e-04
 1.04896e-04
 9.83437e-05
 9.17909e-05
 8.52374e-05
 7.86832e-05
 7.21284e-05
 6.55731e-05
 5.90173e-05
 5.24610e-05
 4.59044e-05
 3.93474e-05
 3.27901e-05
 2.62324e-05
 1.96746e-05
 1.31165e-05
 6.55833e-06
 1.00000e-60
)


51
(
 1.00000e-60
 1.93048e-04
 2.85027e-04
 3.54441e-04
 4.12828e-04
 4.63288e-04
 5.06835e-04
 5.43837e-04
 5.74460e-04
 5.98835e-04
 6.17125e-04
 6.29547e-04
 6.36378e-04
 6.37955e-04
 6.34665e-04
 6.26933e-04
 6.15215e-04
 5.99983e-04
 5.81717e-04
 5.60894e-04
 5.37981e-04
 5.13424e-04
 4.87646e-04
 4.61042e-04
 4.33969e-04
 4.06753e-04
 3.79680e-04
 3.53000e-04
 3.26923e-04
 3.01625e-04
 2.77245e-04
 2.53892e-04
 2.31642e-04
 2.10545e-04
 1.90625e-04
 1.71884e-04
 1.54308e-04
 1.37864e-04
 1.22506e-04
 1.08179e-04
 9.48199e-05
 8.23584e-05
 7.07221e-05
 5.98365e-05
 4.96279e-05
 4.00246e-05
 3.09604e-05
 2.23789e-05
 1.42464e-05
 6.60526e-06
 1.00000e-60
)


51
(
 1.00000e-60
 1.40193e-04
 2.02974e-04
 2.44660e-04
 2.76578e-04
 3.02592e-04
 3.24393e-04
 3.42849e-04
 3.58465e-04
 3.71563e-04
 3.82369e-04
 3.91052e-04
 3.97751e-04
 4.02584e-04
 4.05656e-04
 4.07063e-04
 4.06898e-04
 4.05248e-04
 4.02201e-04
 3.97839e-04
 3.92246e-04
 3.85503e-04
 3.77691e-04
 3.68887e-04
 3.59169e-04
 3.48615e-04
 3.37298e-04
 3.25291e-04
 3.12666e-04
 2.99490e-04
 2.85832e-04
 2.71757e-04
 2.57325e-04
 2.42597e-04
 2.27631e-04
 2.12482e-04
 1.97201e-04
 1.81838e-04
 1.66441e-04
 1.51054e-04
 1.35721e-04
 1.20482e-04
 1.05376e-04
 9.04439e-05
 7.57270e-05
 6.12726e-05
 4.71422e-05
 3.34325e-05
 2.03365e-05
 8.38337e-06
 1.00000e-60
)


51
(
 1.00000e-60
 8.65127e-05
 1.31983e-04
 1.61355e-04
 1.82295e-04
 1.98126e-04
 2.10529e-04
 2.20444e-04
 2.28441e-04
 2.34890e-04
 2.40038e-04
 2.44062e-04
 2.47091e-04
 2.49222e-04
 2.50533e-04
 2.51082e-04
 2.50921e-04
 2.50090e-04
 2.48625e-04
 2.46558e-04
 2.43916e-04
 2.40724e-04
 2.37003e-04
 2.32776e-04
 2.28061e-04
 2.22878e-04
 2.17242e-04
 2.11171e-04
 2.04682e-04
 1.97789e-04
 1.90508e-04
 1.82855e-04
 1.74843e-04
 1.66489e-04
 1.57806e-04
 1.48810e-04
 1.39517e-04
 1.29942e-04
 1.20102e-04
 1.10015e-04
 9.97022e-05
 8.91852e-05
 7.84917e-05
 6.76557e-05
 5.67226e-05
 4.57571e-05
 3.48592e-05
 2.41996e-05
 1.41070e-05
 5.32610e-06
 1.00000e-60
)


51
(
 1.00000e-60
 1.00000e-60
 1.00000e-60
 1.00000e-60
 1.00000e-60
 1.00000e-60
 1.00000e-60
 1.00000e-60
 1.00000e-60
 1.00000e-60
 1.00000e-60
 1.00000e-60
 1.00000e-60
 1.00000e-60
 1.00000e-60
 1.00000e-60
 1.00000e-60
 1.00000e-60
 1.00000e-60
 1.00000e-60
 1.00000e-60
 1.00000e-60
 1.00000e-60
 1.00000e-60
 1.00000e-60
 1.00000e-60
 1.00000e-60
 1.00000e-60
 1.00000e-60
 1.00000e-60
 1.00000e-60
 1.00000e-60
 1.00000e-60
 1.00000e-60
 1.00000e-60
 1.00000e-60
 1.00000e-60
 1.00000e-60
 1.00000e-60
 1.00000e-60
 1.00000e-60
 1.00000e-60
 1.00000e-60
 1.00000e-60
 1.00000e-60
 1.00000e-60
 1.00000e-60
 1.00000e-60
 1.00000e-60
 1.00000e-60
 1.00000e-60
)


)


5
(

51
(
 1.00000e-60
 5.07475e-04
 2.01749e-04
 2.66046e-04
 2.35210e-04
 2.30760e-04
 2.15810e-03
 2.12040e-03
 2.07698e-03
 2.03635e-03
 2.00522e-03
 1.98680e-03
 1.96802e-03
 1.93070e-03
 2.69056e-04
 2.61668e-04
 2.54263e-04
 2.46844e-04
 2.39413e-04
 2.31974e-04
 2.24526e-04
 2.17073e-04
 2.09614e-04
 2.02150e-04
 1.94683e-04
 1.87212e-04
 1.79738e-04
 1.72262e-04
 1.64784e-04
 1.57303e-04
 1.49822e-04
 1.42338e-04
 1.34854e-04
 1.27368e-04
 1.19881e-04
 1.12393e-04
 1.04904e-04
 9.74141e-05
 8.99236e-05
 8.24325e-05
 7.49407e-05
 6.74483e-05
 5.99555e-05
 5.24622e-05
 4.49685e-05
 3.74743e-05
 2.99799e-05
 2.24853e-05
 1.49903e-05
 7.49523e-06
 1.00000e-60
)


51
(
 1.00000e-60
 2.09116e-04
 3.14783e-04
 3.96389e-04
 4.65579e-04
 5.25490e-04
 5.77165e-04
 6.21006e-04
 6.57226e-04
 6.86009e-04
 7.07582e-04
 7.22233e-04
 7.30319e-04
 7.32257e-04
 7.28520e-04
 7.19621e-04
 7.06103e-04
 6.88524e-04
 6.67448e-04
 6.43433e-04
 6.17022e-04
 5.88733e-04
 5.59056e-04
 5.28444e-04
 4.97311e-04
 4.66028e-04
 4.34925e-04
 4.04287e-04
 3.74354e-04
 3.45327e-04
 3.17364e-04
 2.90587e-04
 2.65083e-04
 2.40908e-04
 2.18088e-04
 1.96625e-04
 1.76500e-04
 1.57675e-04
 1.40098e-04
 1.23704e-04
 1.08419e-04
 9.41637e-05
 8.08545e-05
 6.84056e-05
 5.67323e-05
 4.57523e-05
 3.53896e-05
 2.55795e-05
 1.62835e-05
 7.54944e-06
 1.00000e-60
)


51
(
 1.00000e-60
 1.49628e-04
 2.19367e-04
 2.67032e-04
 3.04251e-04
 3.34998e-04
 3.61022e-04
 3.83230e-04
 4.02151e-04
 4.18132e-04
 4.31421e-04
 4.42206e-04
 4.50645e-04
 4.56874e-04
 4.61016e-04
 4.63186e-04
 4.63492e-04
 4.62042e-04
 4.58936e-04
 4.54277e-04
 4.48162e-04
 4.40690e-04
 4.31955e-04
 4.22053e-04
 4.11074e-04
 3.99111e-04
 3.86251e-04
 3.72580e-04
 3.58183e-04
 3.43140e-04
 3.27532e-04
 3.11433e-04
 2.94917e-04
 2.78054e-04
 2.60912e-04
 2.43554e-04
 2.26041e-04
 2.08432e-04
 1.90781e-04
 1.73141e-04
 1.55561e-04
 1.38089e-04
 1.20770e-04
 1.03652e-04
 8.67802e-05
 7.02110e-05
 5.40147e-05
 3.83024e-05
 2.32953e-05
 9.60030e-06
 1.00000e-60
)


51
(
 1.00000e-60
 9.14575e-05
 1.40381e-04
 1.72563e-04
 1.95921e-04
 2.13888e-04
 2.28201e-04
 2.39832e-04
 2.49374e-04
 2.57209e-04
 2.63595e-04
 2.68719e-04
 2.72715e-04
 2.75686e-04
 2.77713e-04
 2.78861e-04
 2.79184e-04