/*--------------------------------*- C++ -*----------------------------------*\
| =========                 |                                                 |
| \      /  F ield          | OpenFOAM: The Open Source CFD Toolbox           |
|  \    /   O peration      | Version:  7                                     |
|   \  /    A nd            | Web:      http://www.OpenFOAM.com               |
|    \/     M anipulation   |                                                 |
\*---------------------------------------------------------------------------*/
FoamFile 
{   version     2.0;
    format      ascii;
    class       dictionary;
    location    "constant";
    object      LDMtable;
}
// * * * * * * * * * * * * * * * * * * * * * * * * * * * * * * * * * * * * * //

CH4_table
5
(

51
(

5
(

51
(
 1.00000e-60
 2.00000e-02
 3.91775e-02
 6.02166e-02
 8.03541e-02
 9.96468e-02
 1.20000e-01
 1.40000e-01
 1.60000e-01
 1.80000e-01
 2.00000e-01
 2.20000e-01
 2.40000e-01
 2.60000e-01
 2.80000e-01
 3.00000e-01
 3.20000e-01
 3.40000e-01
 3.60000e-01
 3.80000e-01
 4.00000e-01
 4.20000e-01
 4.40000e-01
 4.60000e-01
 4.80000e-01
 5.00000e-01
 5.20000e-01
 5.40000e-01
 5.60000e-01
 5.80000e-01
 6.00000e-01
 6.20000e-01
 6.40000e-01
 6.60000e-01
 6.80000e-01
 7.00000e-01
 7.20000e-01
 7.40000e-01
 7.60000e-01
 7.80000e-01
 8.00000e-01
 8.20000e-01
 8.40000e-01
 8.60000e-01
 8.80000e-01
 9.00000e-01
 9.20000e-01
 9.40000e-01
 9.60000e-01
 9.80000e-01
 1.00000e+00
)


51
(
 1.00000e-60
 1.99451e-02
 3.98786e-02
 5.98268e-02
 7.97906e-02
 9.97682e-02
 1.19757e-01
 1.39755e-01
 1.59760e-01
 1.79770e-01
 1.99783e-01
 2.19799e-01
 2.39816e-01
 2.59834e-01
 2.79851e-01
 2.99868e-01
 3.19884e-01
 3.39899e-01
 3.59913e-01
 3.79925e-01
 3.99936e-01
 4.19946e-01
 4.39954e-01
 4.59962e-01
 4.79968e-01
 4.99974e-01
 5.19979e-01
 5.39983e-01
 5.59986e-01
 5.79989e-01
 5.99991e-01
 6.19993e-01
 6.39994e-01
 6.59995e-01
 6.79996e-01
 6.99997e-01
 7.19998e-01
 7.39998e-01
 7.59999e-01
 7.79999e-01
 7.99999e-01
 8.20000e-01
 8.40000e-01
 8.60000e-01
 8.80000e-01
 9.00000e-01
 9.20000e-01
 9.40000e-01
 9.60000e-01
 9.80000e-01
 1.00000e+00
)


51
(
 1.00000e-60
 1.99834e-02
 3.99587e-02
 5.99351e-02
 7.99143e-02
 9.98966e-02
 1.19882e-01
 1.39870e-01
 1.59861e-01
 1.79854e-01
 1.99849e-01
 2.19846e-01
 2.39845e-01
 2.59845e-01
 2.79846e-01
 2.99849e-01
 3.19852e-01
 3.39856e-01
 3.59861e-01
 3.79867e-01
 3.99872e-01
 4.19878e-01
 4.39885e-01
 4.59891e-01
 4.79898e-01
 4.99904e-01
 5.19910e-01
 5.39917e-01
 5.59923e-01
 5.79929e-01
 5.99935e-01
 6.19941e-01
 6.39946e-01
 6.59951e-01
 6.79956e-01
 6.99961e-01
 7.19965e-01
 7.39969e-01
 7.59973e-01
 7.79977e-01
 7.99980e-01
 8.19983e-01
 8.39986e-01
 8.59988e-01
 8.79991e-01
 8.99993e-01
 9.19995e-01
 9.39997e-01
 9.59998e-01
 9.79999e-01
 1.00000e+00
)


51
(
 1.00000e-60
 1.99961e-02
 3.99890e-02
 5.99810e-02
 7.99730e-02
 9.99654e-02
 1.19958e-01
 1.39952e-01
 1.59946e-01
 1.79940e-01
 1.99936e-01
 2.19932e-01
 2.39928e-01
 2.59925e-01
 2.79922e-01
 2.99920e-01
 3.19919e-01
 3.39918e-01
 3.59917e-01
 3.79917e-01
 3.99917e-01
 4.19917e-01
 4.39918e-01
 4.59919e-01
 4.79920e-01
 4.99922e-01
 5.19924e-01
 5.39926e-01
 5.59928e-01
 5.79931e-01
 5.99934e-01
 6.19936e-01
 6.39940e-01
 6.59943e-01
 6.79946e-01
 6.99949e-01
 7.19953e-01
 7.39956e-01
 7.59960e-01
 7.79964e-01
 7.99967e-01
 8.19971e-01
 8.39975e-01
 8.59979e-01
 8.79982e-01
 8.99986e-01
 9.19990e-01
 9.39993e-01
 9.59996e-01
 9.79999e-01
 1.00000e+00
)


51
(
 1.00000e-60
 2.00000e-02
 4.00000e-02
 6.00000e-02
 8.00000e-02
 1.00000e-01
 1.20000e-01
 1.40000e-01
 1.60000e-01
 1.80000e-01
 2.00000e-01
 2.20000e-01
 2.40000e-01
 2.60000e-01
 2.80000e-01
 3.00000e-01
 3.20000e-01
 3.40000e-01
 3.60000e-01
 3.80000e-01
 4.00000e-01
 4.20000e-01
 4.40000e-01
 4.60000e-01
 4.80000e-01
 5.00000e-01
 5.20000e-01
 5.40000e-01
 5.60000e-01
 5.80000e-01
 6.00000e-01
 6.20000e-01
 6.40000e-01
 6.60000e-01
 6.80000e-01
 7.00000e-01
 7.20000e-01
 7.40000e-01
 7.60000e-01
 7.80000e-01
 8.00000e-01
 8.20000e-01
 8.40000e-01
 8.60000e-01
 8.80000e-01
 9.00000e-01
 9.20000e-01
 9.40000e-01
 9.60000e-01
 9.80000e-01
 1.00000e+00
)


)


5
(

51
(
 1.00000e-60
 1.93217e-02
 3.91595e-02
 6.01902e-02
 8.03088e-02
 9.90598e-02
 1.17950e-01
 1.37987e-01
 1.58030e-01
 1.78076e-01
 1.98122e-01
 2.18168e-01
 2.38214e-01
 2.58260e-01
 2.78714e-01
 2.98750e-01
 3.18786e-01
 3.38822e-01
 3.58857e-01
 3.78893e-01
 3.98929e-01
 4.18964e-01
 4.39000e-01
 4.59036e-01
 4.79072e-01
 4.99107e-01
 5.19143e-01
 5.39179e-01
 5.59214e-01
 5.79250e-01
 5.99286e-01
 6.19321e-01
 6.39357e-01
 6.59393e-01
 6.79429e-01
 6.99464e-01
 7.19500e-01
 7.39536e-01
 7.59571e-01
 7.79607e-01
 7.99643e-01
 8.19679e-01
 8.39714e-01
 8.59750e-01
 8.79786e-01
 8.99821e-01
 9.19857e-01
 9.39893e-01
 9.59929e-01
 9.79964e-01
 1.00000e+00
)


51
(
 1.00000e-60
 1.96752e-02
 3.94810e-02
 5.93323e-02
 7.92132e-02
 9.91171e-02
 1.19040e-01
 1.38978e-01
 1.58931e-01
 1.78894e-01
 1.98868e-01
 2.18851e-01
 2.38841e-01
 2.58837e-01
 2.78839e-01
 2.98846e-01
 3.18858e-01
 3.38873e-01
 3.58892e-01
 3.78913e-01
 3.98938e-01
 4.18964e-01
 4.38993e-01
 4.59023e-01
 4.79054e-01
 4.99087e-01
 5.19121e-01
 5.39156e-01
 5.59192e-01
 5.79228e-01
 5.99264e-01
 6.19301e-01
 6.39338e-01
 6.59376e-01
 6.79413e-01
 6.99450e-01
 7.19488e-01
 7.39525e-01
 7.59563e-01
 7.79600e-01
 7.99637e-01
 8.19674e-01
 8.39711e-01
 8.59748e-01
 8.79785e-01
 8.99822e-01
 9.19858e-01
 9.39895e-01
 9.59931e-01
 9.79967e-01
 1.00000e+00
)


51
(
 1.00000e-60
 1.97831e-02
 3.96645e-02
 5.95758e-02
 7.95033e-02
 9.94418e-02
 1.19389e-01
 1.39344e-01
 1.59305e-01
 1.79272e-01
 1.99244e-01
 2.19221e-01
 2.39202e-01
 2.59188e-01
 2.79178e-01
 2.99171e-01
 3.19167e-01
 3.39167e-01
 3.59169e-01
 3.79174e-01
 3.99182e-01
 4.19192e-01
 4.39204e-01
 4.59218e-01
 4.79235e-01
 4.99252e-01
 5.19272e-01
 5.39293e-01
 5.59315e-01
 5.79339e-01
 5.99364e-01
 6.19390e-01
 6.39417e-01
 6.59445e-01
 6.79474e-01
 6.99504e-01
 7.19534e-01
 7.39566e-01
 7.59598e-01
 7.79630e-01
 7.99663e-01
 8.19697e-01
 8.39731e-01
 8.59765e-01
 8.79800e-01
 8.99834e-01
 9.19870e-01
 9.39905e-01
 9.59939e-01
 9.79973e-01
 1.00000e+00
)


51
(
 1.00000e-60
 1.98729e-02
 3.97986e-02
 5.97454e-02
 7.97039e-02
 9.96698e-02
 1.19641e-01
 1.39616e-01
 1.59595e-01
 1.79577e-01
 1.99561e-01
 2.19548e-01
 2.39536e-01
 2.59527e-01
 2.79519e-01
 2.99514e-01
 3.19510e-01
 3.39507e-01
 3.59506e-01
 3.79506e-01
 3.99508e-01
 4.19511e-01
 4.39516e-01
 4.59522e-01
 4.79528e-01
 4.99537e-01
 5.19546e-01
 5.39556e-01
 5.59568e-01
 5.79580e-01
 5.99593e-01
 6.19608e-01
 6.39623e-01
 6.59639e-01
 6.79656e-01
 6.99674e-01
 7.19693e-01
 7.39713e-01
 7.59733e-01
 7.79754e-01
 7.99775e-01
 8.19798e-01
 8.39820e-01
 8.59844e-01
 8.79868e-01
 8.99892e-01
 9.19916e-01
 9.39940e-01
 9.59963e-01
 9.79984e-01
 1.00000e+00
)


51
(
 1.00000e-60
 2.00000e-02
 4.00000e-02
 6.00000e-02
 8.00000e-02
 1.00000e-01
 1.20000e-01
 1.40000e-01
 1.60000e-01
 1.80000e-01
 2.00000e-01
 2.20000e-01
 2.40000e-01
 2.60000e-01
 2.80000e-01
 3.00000e-01
 3.20000e-01
 3.40000e-01
 3.60000e-01
 3.80000e-01
 4.00000e-01
 4.20000e-01
 4.40000e-01
 4.60000e-01
 4.80000e-01
 5.00000e-01
 5.20000e-01
 5.40000e-01
 5.60000e-01
 5.80000e-01
 6.00000e-01
 6.20000e-01
 6.40000e-01
 6.60000e-01
 6.80000e-01
 7.00000e-01
 7.20000e-01
 7.40000e-01
 7.60000e-01
 7.80000e-01
 8.00000e-01
 8.20000e-01
 8.40000e-01
 8.60000e-01
 8.80000e-01
 9.00000e-01
 9.20000e-01
 9.40000e-01
 9.60000e-01
 9.80000e-01
 1.00000e+00
)


)


5
(

51
(
 1.00000e-60
 1.86434e-02
 3.89929e-02
 5.99457e-02
 8.00531e-02
 9.82797e-02
 1.15900e-01
 1.35973e-01
 1.56060e-01
 1.76152e-01
 1.96244e-01
 2.16337e-01
 2.36429e-01
 2.56521e-01
 2.77429e-01
 2.97500e-01
 3.17572e-01
 3.37643e-01
 3.57715e-01
 3.77786e-01
 3.97857e-01
 4.17929e-01
 4.38000e-01
 4.58072e-01
 4.78143e-01
 4.98214e-01
 5.18286e-01
 5.38357e-01
 5.58429e-01
 5.78500e-01
 5.98572e-01
 6.18643e-01
 6.38714e-01
 6.58786e-01
 6.78857e-01
 6.98929e-01
 7.19000e-01
 7.39072e-01
 7.59143e-01
 7.79214e-01
 7.99286e-01
 8.19357e-01
 8.39429e-01
 8.59500e-01
 8.79571e-01
 8.99643e-01
 9.19714e-01
 9.39786e-01
 9.59857e-01
 9.79929e-01
 1.00000e+00
)


51
(
 1.00000e-60
 1.94044e-02
 3.90809e-02
 5.88331e-02
 7.86287e-02
 9.84566e-02
 1.18311e-01
 1.38188e-01
 1.58086e-01
 1.78003e-01
 1.97936e-01
 2.17885e-01
 2.37847e-01
 2.57823e-01
 2.77810e-01
 2.97808e-01
 3.17815e-01
 3.37832e-01
 3.57857e-01
 3.77889e-01
 3.97927e-01
 4.17972e-01
 4.38021e-01
 4.58075e-01
 4.78133e-01
 4.98194e-01
 5.18258e-01
 5.38325e-01
 5.58393e-01
 5.78463e-01
 5.98535e-01
 6.18607e-01
 6.38680e-01
 6.58754e-01
 6.78828e-01
 6.98902e-01
 7.18977e-01
 7.39051e-01
 7.59126e-01
 7.79200e-01
 7.99274e-01
 8.19348e-01
 8.39422e-01
 8.59496e-01
 8.79570e-01
 8.99643e-01
 9.19717e-01
 9.39790e-01
 9.59862e-01
 9.79934e-01
 1.00000e+00
)


51
(
 1.00000e-60
 1.95825e-02
 3.93694e-02
 5.92150e-02
 7.90899e-02
 9.89840e-02
 1.18893e-01
 1.38813e-01
 1.58744e-01
 1.78684e-01
 1.98633e-01
 2.18589e-01
 2.38553e-01
 2.58524e-01
 2.78501e-01
 2.98485e-01
 3.18474e-01
 3.38469e-01
 3.58469e-01
 3.78474e-01
 3.98483e-01
 4.18497e-01
 4.38516e-01
 4.58538e-01
 4.78564e-01
 4.98593e-01
 5.18626e-01
 5.38662e-01
 5.58701e-01
 5.78742e-01
 5.98787e-01
 6.18834e-01
 6.38883e-01
 6.58934e-01
 6.78987e-01
 6.99043e-01
 7.19100e-01
 7.39159e-01
 7.59219e-01
 7.79281e-01
 7.99344e-01
 8.19408e-01
 8.39473e-01
 8.59540e-01
 8.79607e-01
 8.99675e-01
 9.19743e-01
 9.39812e-01
 9.59880e-01
 9.79946e-01
 1.00000e+00
)


51
(
 1.00000e-60
 1.97496e-02
 3.96079e-02
 5.95093e-02
 7.94341e-02
 9.93733e-02
 1.19323e-01
 1.39280e-01
 1.59243e-01
 1.79212e-01
 1.99185e-01
 2.19162e-01
 2.39143e-01
 2.59127e-01
 2.79114e-01
 2.99104e-01
 3.19098e-01
 3.39094e-01
 3.59092e-01
 3.79093e-01
 3.99097e-01
 4.19103e-01
 4.39111e-01
 4.59121e-01
 4.79134e-01
 4.99148e-01
 5.19165e-01
 5.39183e-01
 5.59204e-01
 5.79226e-01
 5.99250e-01
 6.19276e-01
 6.39304e-01
 6.59333e-01
 6.79364e-01
 6.99397e-01
 7.19431e-01
 7.39467e-01
 7.59504e-01
 7.79542e-01
 7.99582e-01
 8.19623e-01
 8.39665e-01
 8.59708e-01
 8.79752e-01
 8.99796e-01
 9.19842e-01
 9.39886e-01
 9.59930e-01
 9.79970e-01
 1.00000e+00
)


51
(
 1.00000e-60
 2.00000e-02
 4.00000e-02
 6.00000e-02
 8.00000e-02
 1.00000e-01
 1.20000e-01
 1.40000e-01
 1.60000e-01
 1.80000e-01
 2.00000e-01
 2.20000e-01
 2.40000e-01
 2.60000e-01
 2.80000e-01
 3.00000e-01
 3.20000e-01
 3.40000e-01
 3.60000e-01
 3.80000e-01
 4.00000e-01
 4.20000e-01
 4.40000e-01
 4.60000e-01
 4.80000e-01
 5.00000e-01
 5.20000e-01
 5.40000e-01
 5.60000e-01
 5.80000e-01
 6.00000e-01
 6.20000e-01
 6.40000e-01
 6.60000e-01
 6.80000e-01
 7.00000e-01
 7.20000e-01
 7.40000e-01
 7.60000e-01
 7.80000e-01
 8.00000e-01
 8.20000e-01
 8.40000e-01
 8.60000e-01
 8.80000e-01
 9.00000e-01
 9.20000e-01
 9.40000e-01
 9.60000e-01
 9.80000e-01
 1.00000e+00
)


)


5
(

51
(
 1.00000e-60
 1.79650e-02
 3.86620e-02
 5.94598e-02
 7.95694e-02
 9.73968e-02
 1.13850e-01
 1.33960e-01
 1.54090e-01
 1.74227e-01
 1.94366e-01
 2.14505e-01
 2.34643e-01
 2.54781e-01
 2.76143e-01
 2.96250e-01
 3.16358e-01
 3.36465e-01
 3.56572e-01
 3.76679e-01
 3.96786e-01
 4.16893e-01
 4.37000e-01
 4.57107e-01
 4.77215e-01
 4.97322e-01
 5.17429e-01
 5.37536e-01
 5.57643e-01
 5.77750e-01
 5.97857e-01
 6.17964e-01
 6.38072e-01
 6.58179e-01
 6.78286e-01
 6.98393e-01
 7.18500e-01
 7.38607e-01
 7.58714e-01
 7.78822e-01
 7.98929e-01
 8.19036e-01
 8.39143e-01
 8.59250e-01
 8.79357e-01
 8.99464e-01
 9.19571e-01
 9.39679e-01
 9.59786e-01
 9.79893e-01
 1.00000e+00
)


51
(
 1.00000e-60
 1.91258e-02
 3.86626e-02
 5.83070e-02
 7.80106e-02
 9.77576e-02
 1.17540e-01
 1.37355e-01
 1.57198e-01
 1.77067e-01
 1.96961e-01
 2.16877e-01
 2.36815e-01
 2.56772e-01
 2.76746e-01
 2.96738e-01
 3.16745e-01
 3.36765e-01
 3.56799e-01
 3.76844e-01
 3.96899e-01
 4.16963e-01
 4.37036e-01
 4.57115e-01
 4.77201e-01
 4.97292e-01
 5.17387e-01
 5.37487e-01
 5.57589e-01
 5.77694e-01
 5.97801e-01
 6.17910e-01
 6.38020e-01
 6.58130e-01
 6.78241e-01
 6.98353e-01
 7.18465e-01
 7.38577e-01
 7.58688e-01
 7.78800e-01
 7.98911e-01
 8.19022e-01
 8.39133e-01
 8.59244e-01
 8.79354e-01
 8.99465e-01
 9.19575e-01
 9.39685e-01
 9.59794e-01
 9.79901e-01
 1.00000e+00
)


51
(
 1.00000e-60
 1.93795e-02
 3.90680e-02
 5.88442e-02
 7.86634e-02
 9.85101e-02
 1.18377e-01
 1.38262e-01
 1.58160e-01
 1.78072e-01
 1.97997e-01
 2.17932e-01
 2.37878e-01
 2.57833e-01
 2.77798e-01
 2.97772e-01
 3.17755e-01
 3.37745e-01
 3.57743e-01
 3.77749e-01
 3.97761e-01
 4.17780e-01
 4.37805e-01
 4.57836e-01
 4.77873e-01
 4.97915e-01
 5.17962e-01
 5.38014e-01
 5.58071e-01
 5.78131e-01
 5.98196e-01
 6.18265e-01
 6.38337e-01
 6.58412e-01
 6.78491e-01
 6.98573e-01
 7.18657e-01
 7.38744e-01
 7.58834e-01
 7.78926e-01
 7.99019e-01
 8.19115e-01
 8.39213e-01
 8.59312e-01
 8.79412e-01
 8.99514e-01
 9.19616e-01
 9.39719e-01
 9.59820e-01
 9.79919e-01
 1.00000e+00
)


51
(
 1.00000e-60
 1.96257e-02
 3.94155e-02
 5.92704e-02
 7.91601e-02
 9.90716e-02
 1.18998e-01
 1.38936e-01
 1.58883e-01
 1.78837e-01
 1.98798e-01
 2.18765e-01
 2.38737e-01
 2.58715e-01
 2.78696e-01
 2.98683e-01
 3.18673e-01
 3.38667e-01
 3.58665e-01
 3.78667e-01
 3.98672e-01
 4.18680e-01
 4.38692e-01
 4.58707e-01
 4.78725e-01
 4.98747e-01
 5.18771e-01
 5.38798e-01
 5.58828e-01
 5.78861e-01
 5.98896e-01
 6.18934e-01
 6.38975e-01
 6.59018e-01
 6.79063e-01
 6.99111e-01
 7.19161e-01
 7.39213e-01
 7.59268e-01
 7.79324e-01
 7.99382e-01
 8.19442e-01
 8.39504e-01
 8.59568e-01
 8.79633e-01
 8.99699e-01
 9.19765e-01
 9.39832e-01
 9.59896e-01
 9.79956e-01
 1.00000e+00
)


51
(
 1.00000e-60
 2.00000e-02
 4.00000e-02
 6.00000e-02
 8.00000e-02
 1.00000e-01
 1.20000e-01
 1.40000e-01
 1.60000e-01
 1.80000e-01
 2.00000e-01
 2.20000e-01
 2.40000e-01
 2.60000e-01
 2.80000e-01
 3.00000e-01
 3.20000e-01
 3.40000e-01
 3.60000e-01
 3.80000e-01
 4.00000e-01
 4.20000e-01
 4.40000e-01
 4.60000e-01
 4.80000e-01
 5.00000e-01
 5.20000e-01
 5.40000e-01
 5.60000e-01
 5.80000e-01
 6.00000e-01
 6.20000e-01
 6.40000e-01
 6.60000e-01
 6.80000e-01
 7.00000e-01
 7.20000e-01
 7.40000e-01
 7.60000e-01
 7.80000e-01
 8.00000e-01
 8.20000e-01
 8.40000e-01
 8.60000e-01
 8.80000e-01
 9.00000e-01
 9.20000e-01
 9.40000e-01
 9.60000e-01
 9.80000e-01
 1.00000e+00
)


)


5
(

51
(
 1.00000e-60
 1.72867e-02
 3.81795e-02
 5.87506e-02
 7.88732e-02
 9.64166e-02
 1.11801e-01
 1.31946e-01
 1.52120e-01
 1.72303e-01
 1.92488e-01
 2.12673e-01
 2.32857e-01
 2.53041e-01
 2.74858e-01
 2.95001e-01
 3.15143e-01
 3.35286e-01
 3.55429e-01
 3.75572e-01
 3.95715e-01
 4.15858e-01
 4.36000e-01
 4.56143e-01
 4.76286e-01
 4.96429e-01
 5.16572e-01
 5.36715e-01
 5.56857e-01
 5.77000e-01
 5.97143e-01
 6.17286e-01
 6.37429e-01
 6.57572e-01
 6.77714e-01
 6.97857e-01
 7.18000e-01
 7.38143e-01
 7.58286e-01
 7.78429e-01
 7.98572e-01
 8.18714e-01
 8.38857e-01
 8.59000e-01
 8.79143e-01
 8.99286e-01
 9.19429e-01
 9.39571e-01
 9.59714e-01
 9.79857e-01
 1.00000e+00
)


51
(
 1.00000e-60
 1.88397e-02
 3.82274e-02
 5.77560e-02
 7.73615e-02
 9.70230e-02
 1.16731e-01
 1.36481e-01
 1.56269e-01
 1.76091e-01
 1.95946e-01
 2.15832e-01
 2.35746e-01
 2.55687e-01
 2.75652e-01
 2.95639e-01
 3.15648e-01
 3.35675e-01
 3.55720e-01
 3.75780e-01
 3.95854e-01
 4.15940e-01
 4.36037e-01
 4.56144e-01
 4.76259e-01
 4.96382e-01
 5.16510e-01
 5.36643e-01
 5.56780e-01
 5.76921e-01
 5.97064e-01
 6.17210e-01
 6.37357e-01
 6.57505e-01
 6.77653e-01
 6.97803e-01
 7.17952e-01
 7.38101e-01
 7.58250e-01
 7.78399e-01
 7.98548e-01
 8.18696e-01
 8.38844e-01
 8.58992e-01
 8.79139e-01
 8.99286e-01
 9.19433e-01
 9.39579e-01
 9.59725e-01
 9.79868e-01
 1.00000e+00
)


51
(
 1.00000e-60
 1.91741e-02
 3.87608e-02
 5.84642e-02
 7.82245e-02
 9.80212e-02
 1.17845e-01
 1.37691e-01
 1.57556e-01
 1.77439e-01
 1.97337e-01
 2.17251e-01
 2.37178e-01
 2.57118e-01
 2.77071e-01
 2.97035e-01
 3.17011e-01
 3.36998e-01
 3.56995e-01
 3.77001e-01
 3.97017e-01
 4.17041e-01
 4.37074e-01
 4.57115e-01
 4.77164e-01
 4.97219e-01
 5.17282e-01
 5.37351e-01
 5.57426e-01
 5.77507e-01
 5.97593e-01
 6.17684e-01
 6.37780e-01
 6.57881e-01
 6.77986e-01
 6.98095e-01
 7.18208e-01
 7.38324e-01
 7.58443e-01
 7.78566e-01
 7.98691e-01
 8.18819e-01
 8.38949e-01
 8.59081e-01
 8.79215e-01
 8.99351e-01
 9.19487e-01
 9.39624e-01
 9.59760e-01
 9.79891e-01
 1.00000e+00
)


51
(
 1.00000e-60
 1.95013e-02
 3.92216e-02
 5.90288e-02
 7.88824e-02
 9.87649e-02
 1.18667e-01
 1.38585e-01
 1.58515e-01
 1.78454e-01
 1.98403e-01
 2.18359e-01
 2.38322e-01
 2.58292e-01
 2.78267e-01
 2.98249e-01
 3.18236e-01
 3.38228e-01
 3.58225e-01
 3.78227e-01
 3.98234e-01
 4.18245e-01
 4.38261e-01
 4.58281e-01
 4.78305e-01
 4.98333e-01
 5.18366e-01
 5.38402e-01
 5.58441e-01
 5.78485e-01
 5.98532e-01
 6.18582e-01
 6.38636e-01
 6.58693e-01
 6.78753e-01
 6.98817e-01
 7.18883e-01
 7.38953e-01
 7.59025e-01
 7.79100e-01
 7.99178e-01
 8.19258e-01
 8.39340e-01
 8.59425e-01
 8.79511e-01
 8.99599e-01
 9.19687e-01
 9.39776e-01
 9.59862e-01
 9.79941e-01
 1.00000e+00
)


51
(
 1.00000e-60
 2.00000e-02
 4.00000e-02
 6.00000e-02
 8.00000e-02
 1.00000e-01
 1.20000e-01
 1.40000e-01
 1.60000e-01
 1.80000e-01
 2.00000e-01
 2.20000e-01
 2.40000e-01
 2.60000e-01
 2.80000e-01
 3.00000e-01
 3.20000e-01
 3.40000e-01
 3.60000e-01
 3.80000e-01
 4.00000e-01
 4.20000e-01
 4.40000e-01
 4.60000e-01
 4.80000e-01
 5.00000e-01
 5.20000e-01
 5.40000e-01
 5.60000e-01
 5.80000e-01
 6.00000e-01
 6.20000e-01
 6.40000e-01
 6.60000e-01
 6.80000e-01
 7.00000e-01
 7.20000e-01
 7.40000e-01
 7.60000e-01
 7.80000e-01
 8.00000e-01
 8.20000e-01
 8.40000e-01
 8.60000e-01
 8.80000e-01
 9.00000e-01
 9.20000e-01
 9.40000e-01
 9.60000e-01
 9.80000e-01
 1.00000e+00
)


)


5
(

51
(
 1.00000e-60
 1.66315e-02
 3.75579e-02
 5.78363e-02
 7.79797e-02
 9.53443e-02
 1.09751e-01
 1.29933e-01
 1.50150e-01
 1.70379e-01
 1.90611e-01
 2.10842e-01
 2.31072e-01
 2.51301e-01
 2.73572e-01
 2.93751e-01
 3.13929e-01
 3.34108e-01
 3.54286e-01
 3.74465e-01
 3.94643e-01
 4.14822e-01
 4.35000e-01
 4.55179e-01
 4.75358e-01
 4.95536e-01
 5.15715e-01
 5.35893e-01
 5.56072e-01
 5.76250e-01
 5.96429e-01
 6.16607e-01
 6.36786e-01
 6.56965e-01
 6.77143e-01
 6.97322e-01
 7.17500e-01
 7.37679e-01
 7.57857e-01
 7.78036e-01
 7.98214e-01
 8.18393e-01
 8.38572e-01
 8.58750e-01
 8.78929e-01
 8.99107e-01
 9.19286e-01
 9.39464e-01
 9.59643e-01
 9.79821e-01
 1.00000e+00
)


51
(
 1.00000e-60
 1.85534e-02
 3.77836e-02
 5.71886e-02
 7.66892e-02
 9.62603e-02
 1.15890e-01
 1.35573e-01
 1.55304e-01
 1.75080e-01
 1.94897e-01
 2.14753e-01
 2.34646e-01
 2.54572e-01
 2.74529e-01
 2.94515e-01
 3.14527e-01
 3.34563e-01
 3.54621e-01
 3.74698e-01
 3.94793e-01
 4.14904e-01
 4.35028e-01
 4.55163e-01
 4.75309e-01
 4.95464e-01
 5.15626e-01
 5.35794e-01
 5.55967e-01
 5.76144e-01
 5.96324e-01
 6.16507e-01
 6.36692e-01
 6.56877e-01
 6.77064e-01
 6.97251e-01
 7.17438e-01
 7.37625e-01
 7.57812e-01
 7.77998e-01
 7.98184e-01
 8.18370e-01
 8.38555e-01
 8.58739e-01
 8.78924e-01
 8.99108e-01
 9.19291e-01
 9.39474e-01
 9.59656e-01
 9.79835e-01
 1.00000e+00
)


51
(
 1.00000e-60
 1.89723e-02
 3.84554e-02
 5.80830e-02
 7.77815e-02
 9.75252e-02
 1.17303e-01
 1.37108e-01
 1.56938e-01
 1.76790e-01
 1.96661e-01
 2.16551e-01
 2.36459e-01
 2.56384e-01
 2.76324e-01
 2.96279e-01
 3.16248e-01
 3.36231e-01
 3.56226e-01
 3.76234e-01
 3.96254e-01
 4.16285e-01
 4.36326e-01
 4.56378e-01
 4.76439e-01
 4.96509e-01
 5.16587e-01
 5.36674e-01
 5.56768e-01
 5.76870e-01
 5.96978e-01
 6.17093e-01
 6.37214e-01
 6.57341e-01
 6.77473e-01
 6.97610e-01
 7.17751e-01
 7.37897e-01
 7.58047e-01
 7.78201e-01
 7.98358e-01
 8.18519e-01
 8.38682e-01
 8.58848e-01
 8.79016e-01
 8.99186e-01
 9.19358e-01
 9.39529e-01
 9.59700e-01
 9.79864e-01
 1.00000e+00
)


51
(
 1.00000e-60
 1.93803e-02
 3.90319e-02
 5.87911e-02
 7.86079e-02
 9.84606e-02
 1.18338e-01
 1.38235e-01
 1.58146e-01
 1.78070e-01
 1.98005e-01
 2.17949e-01
 2.37902e-01
 2.57864e-01
 2.77833e-01
 2.97809e-01
 3.17793e-01
 3.37783e-01
 3.57779e-01
 3.77781e-01
 3.97789e-01
 4.17803e-01
 4.37822e-01
 4.57847e-01
 4.77877e-01
 4.97912e-01
 5.17952e-01
 5.37997e-01
 5.58047e-01
 5.78101e-01
 5.98159e-01
 6.18223e-01
 6.38290e-01
 6.58361e-01
 6.78437e-01
 6.98516e-01
 7.18600e-01
 7.38687e-01
 7.58777e-01
 7.78871e-01
 7.98969e-01
 8.19069e-01
 8.39172e-01
 8.59278e-01
 8.79387e-01
 8.99497e-01
 9.19608e-01
 9.39719e-01
 9.59827e-01
 9.79926e-01
 1.00000e+00
)


51
(
 1.00000e-60
 2.00000e-02
 4.00000e-02
 6.00000e-02
 8.00000e-02
 1.00000e-01
 1.20000e-01
 1.40000e-01
 1.60000e-01
 1.80000e-01
 2.00000e-01
 2.20000e-01
 2.40000e-01
 2.60000e-01
 2.80000e-01
 3.00000e-01
 3.20000e-01
 3.40000e-01
 3.60000e-01
 3.80000e-01
 4.00000e-01
 4.20000e-01
 4.40000e-01
 4.60000e-01
 4.80000e-01
 5.00000e-01
 5.20000e-01
 5.40000e-01
 5.60000e-01
 5.80000e-01
 6.00000e-01
 6.20000e-01
 6.40000e-01
 6.60000e-01
 6.80000e-01
 7.00000e-01
 7.20000e-01
 7.40000e-01
 7.60000e-01
 7.80000e-01
 8.00000e-01
 8.20000e-01
 8.40000e-01
 8.60000e-01
 8.80000e-01
 9.00000e-01
 9.20000e-01
 9.40000e-01
 9.60000e-01
 9.80000e-01
 1.00000e+00
)


)


5
(

51
(
 1.00000e-60
 1.60110e-02
 3.68097e-02
 5.67354e-02
 7.69042e-02
 9.41852e-02
 1.07701e-01
 1.27919e-01
 1.48180e-01
 1.68455e-01
 1.88733e-01
 2.09010e-01
 2.29286e-01
 2.49562e-01
 2.72287e-01
 2.92501e-01
 3.12715e-01
 3.32929e-01
 3.53144e-01
 3.73358e-01
 3.93572e-01
 4.13786e-01
 4.34001e-01
 4.54215e-01
 4.74429e-01
 4.94643e-01
 5.14858e-01
 5.35072e-01
 5.55286e-01
 5.75500e-01
 5.95715e-01
 6.15929e-01
 6.36143e-01
 6.56357e-01
 6.76572e-01
 6.96786e-01
 7.17000e-01
 7.37215e-01
 7.57429e-01
 7.77643e-01
 7.97857e-01
 8.18072e-01
 8.38286e-01
 8.58500e-01
 8.78714e-01
 8.98929e-01
 9.19143e-01
 9.39357e-01
 9.59571e-01
 9.79786e-01
 1.00000e+00
)


51
(
 1.00000e-60
 1.82706e-02
 3.73361e-02
 5.66097e-02
 7.59991e-02
 9.54747e-02
 1.15023e-01
 1.34636e-01
 1.54309e-01
 1.74037e-01
 1.93817e-01
 2.13644e-01
 2.33516e-01
 2.53429e-01
 2.73380e-01
 2.93367e-01
 3.13385e-01
 3.33432e-01
 3.53505e-01
 3.73601e-01
 3.93719e-01
 4.13855e-01
 4.34007e-01
 4.54173e-01
 4.74351e-01
 4.94539e-01
 5.14736e-01
 5.34940e-01
 5.55149e-01
 5.75364e-01
 5.95582e-01
 6.15802e-01
 6.36025e-01
 6.56249e-01
 6.76473e-01
 6.96698e-01
 7.16923e-01
 7.37148e-01
 7.57373e-01
 7.77597e-01
 7.97820e-01
 8.18043e-01
 8.38265e-01
 8.58487e-01
 8.78708e-01
 8.98929e-01
 9.19149e-01
 9.39369e-01
 9.59587e-01
 9.79802e-01
 1.00000e+00
)


51
(
 1.00000e-60
 1.87770e-02
 3.81554e-02
 5.77049e-02
 7.73386e-02
 9.70267e-02
 1.16756e-01
 1.36518e-01
 1.56311e-01
 1.76129e-01
 1.95973e-01
 2.15839e-01
 2.35726e-01
 2.55634e-01
 2.75561e-01
 2.95506e-01
 3.15468e-01
 3.35447e-01
 3.55442e-01
 3.75451e-01
 3.95475e-01
 4.15513e-01
 4.35563e-01
 4.55625e-01
 4.75699e-01
 4.95784e-01
 5.15880e-01
 5.35985e-01
 5.56099e-01
 5.76223e-01
 5.96354e-01
 6.16493e-01
 6.36640e-01
 6.56793e-01
 6.76952e-01
 6.97118e-01
 7.17289e-01
 7.37466e-01
 7.57647e-01
 7.77833e-01
 7.98022e-01
 8.18216e-01
 8.38413e-01
 8.58613e-01
 8.78816e-01
 8.99020e-01
 9.19227e-01
 9.39434e-01
 9.59639e-01
 9.79836e-01
 1.00000e+00
)


51
(
 1.00000e-60
 1.92646e-02
 3.88491e-02
 5.85605e-02
 7.83402e-02
 9.81624e-02
 1.18014e-01
 1.37888e-01
 1.57781e-01
 1.77688e-01
 1.97608e-01
 2.17540e-01
 2.37483e-01
 2.57435e-01
 2.77397e-01
 2.97368e-01
 3.17347e-01
 3.37334e-01
 3.57328e-01
 3.77330e-01
 3.97339e-01
 4.17355e-01
 4.37378e-01
 4.57407e-01
 4.77443e-01
 4.97485e-01
 5.17533e-01
 5.37586e-01
 5.57646e-01
 5.77711e-01
 5.97782e-01
 6.17857e-01
 6.37938e-01
 6.58025e-01
 6.78116e-01
 6.98211e-01
 7.18312e-01
 7.38417e-01
 7.58526e-01
 7.78639e-01
 7.98756e-01
 8.18878e-01
 8.39002e-01
 8.59130e-01
 8.79261e-01
 8.99393e-01
 9.19528e-01
 9.39661e-01
 9.59791e-01
 9.79911e-01
 1.00000e+00
)


51
(
 1.00000e-60
 2.00000e-02
 4.00000e-02
 6.00000e-02
 8.00000e-02
 1.00000e-01
 1.20000e-01
 1.40000e-01
 1.60000e-01
 1.80000e-01
 2.00000e-01
 2.20000e-01
 2.40000e-01
 2.60000e-01
 2.80000e-01
 3.00000e-01
 3.20000e-01
 3.40000e-01
 3.60000e-01
 3.80000e-01
 4.00000e-01
 4.20000e-01
 4.40000e-01
 4.60000e-01
 4.80000e-01
 5.00000e-01
 5.20000e-01
 5.40000e-01
 5.60000e-01
 5.80000e-01
 6.00000e-01
 6.20000e-01
 6.40000e-01
 6.60000e-01
 6.80000e-01
 7.00000e-01
 7.20000e-01
 7.40000e-01
 7.60000e-01
 7.80000e-01
 8.00000e-01
 8.20000e-01
 8.40000e-01
 8.60000e-01
 8.80000e-01
 9.00000e-01
 9.20000e-01
 9.40000e-01
 9.60000e-01
 9.80000e-01
 1.00000e+00
)


)


5
(

51
(
 1.00000e-60
 1.54038e-02
 3.59477e-02
 5.54659e-02
 7.56621e-02
 9.29446e-02
 1.05651e-01
 1.25906e-01
 1.46211e-01
 1.66531e-01
 1.86855e-01
 2.07178e-01
 2.27500e-01
 2.47822e-01
 2.71001e-01
 2.91251e-01
 3.11501e-01
 3.31751e-01
 3.52001e-01
 3.72251e-01
 3.92501e-01
 4.12751e-01
 4.33001e-01
 4.53251e-01
 4.73501e-01
 4.93751e-01
 5.14001e-01
 5.34251e-01
 5.54501e-01
 5.74750e-01
 5.95000e-01
 6.15250e-01
 6.35500e-01
 6.55750e-01
 6.76000e-01
 6.96250e-01
 7.16500e-01
 7.36750e-01
 7.57000e-01
 7.77250e-01
 7.97500e-01
 8.17750e-01
 8.38000e-01
 8.58250e-01
 8.78500e-01
 8.98750e-01
 9.19000e-01
 9.39250e-01
 9.59500e-01
 9.79750e-01
 1.00000e+00
)


51
(
 1.00000e-60
 1.79858e-02
 3.68795e-02
 5.60154e-02
 7.52883e-02
 9.46644e-02
 1.14128e-01
 1.33670e-01
 1.53284e-01
 1.72965e-01
 1.92707e-01
 2.12507e-01
 2.32359e-01
 2.52261e-01
 2.72208e-01
 2.92196e-01
 3.12222e-01
 3.32282e-01
 3.52372e-01
 3.72490e-01
 3.92632e-01
 4.12795e-01
 4.32976e-01
 4.53174e-01
 4.73385e-01
 4.93608e-01
 5.13841e-01
 5.34081e-01
 5.54328e-01
 5.74580e-01
 5.94836e-01
 6.15095e-01
 6.35356e-01
 6.55618e-01
 6.75881e-01
 6.96145e-01
 7.16408e-01
 7.36671e-01
 7.56933e-01
 7.77195e-01
 7.97456e-01
 8.17716e-01
 8.37976e-01
 8.58234e-01
 8.78493e-01
 8.98750e-01
 9.19007e-01
 9.39264e-01
 9.59518e-01
 9.79769e-01
 1.00000e+00
)


51
(
 1.00000e-60
 1.85832e-02
 3.78549e-02
 5.73237e-02
 7.68904e-02
 9.65206e-02
 1.16199e-01
 1.35917e-01
 1.55670e-01
 1.75455e-01
 1.95269e-01
 2.15110e-01
 2.34976e-01
 2.54867e-01
 2.74780e-01
 2.94716e-01
 3.14671e-01
 3.34647e-01
 3.54640e-01
 3.74652e-01
 3.94681e-01
 4.14725e-01
 4.34785e-01
 4.54859e-01
 4.74947e-01
 4.95047e-01
 5.15160e-01
 5.35284e-01
 5.55420e-01
 5.75565e-01
 5.95720e-01
 6.15884e-01
 6.36057e-01
 6.56237e-01
 6.76425e-01
 6.96620e-01
 7.16822e-01
 7.37029e-01
 7.57242e-01
 7.77460e-01
 7.97683e-01
 8.17910e-01
 8.38141e-01
 8.58376e-01
 8.78613e-01
 8.98853e-01
 9.19095e-01
 9.39337e-01
 9.59578e-01
 9.79809e-01
 1.00000e+00
)


51
(
 1.00000e-60
 1.91507e-02
 3.86682e-02
 5.83316e-02
 7.80734e-02
 9.78643e-02
 1.17690e-01
 1.37541e-01
 1.57413e-01
 1.77303e-01
 1.97208e-01
 2.17127e-01
 2.37058e-01
 2.57002e-01
 2.76956e-01
 2.96920e-01
 3.16894e-01
 3.36878e-01
 3.56871e-01
 3.76872e-01
 3.96882e-01
 4.16900e-01
 4.36926e-01
 4.56960e-01
 4.77001e-01
 4.97050e-01
 5.17106e-01
 5.37169e-01
 5.57238e-01
 5.77314e-01
 5.97397e-01
 6.17486e-01
 6.37581e-01
 6.57682e-01
 6.77788e-01
 6.97901e-01
 7.18018e-01
 7.38141e-01
 7.58270e-01
 7.78403e-01
 7.98540e-01
 8.18683e-01
 8.38829e-01
 8.58979e-01
 8.79133e-01
 8.99288e-01
 9.19446e-01
 9.39603e-01
 9.59755e-01
 9.79896e-01
 1.00000e+00
)


51
(
 1.00000e-60
 2.00000e-02
 4.00000e-02
 6.00000e-02
 8.00000e-02
 1.00000e-01
 1.20000e-01
 1.40000e-01
 1.60000e-01
 1.80000e-01
 2.00000e-01
 2.20000e-01
 2.40000e-01
 2.60000e-01
 2.80000e-01
 3.00000e-01
 3.20000e-01
 3.40000e-01
 3.60000e-01
 3.80000e-01
 4.00000e-01
 4.20000e-01
 4.40000e-01
 4.60000e-01
 4.80000e-01
 5.00000e-01
 5.20000e-01
 5.40000e-01
 5.60000e-01
 5.80000e-01
 6.00000e-01
 6.20000e-01
 6.40000e-01
 6.60000e-01
 6.80000e-01
 7.00000e-01
 7.20000e-01
 7.40000e-01
 7.60000e-01
 7.80000e-01
 8.00000e-01
 8.20000e-01
 8.40000e-01
 8.60000e-01
 8.80000e-01
 9.00000e-01
 9.20000e-01
 9.40000e-01
 9.60000e-01
 9.80000e-01
 1.00000e+00
)


)


5
(

51
(
 1.00000e-60
 1.48080e-02
 3.49844e-02
 5.40461e-02
 7.42686e-02
 9.16278e-02
 1.03601e-01
 1.23892e-01
 1.44241e-01
 1.64607e-01
 1.84977e-01
 2.05346e-01
 2.25715e-01
 2.46082e-01
 2.69716e-01
 2.90001e-01
 3.10287e-01
 3.30572e-01
 3.50858e-01
 3.71144e-01
 3.91429e-01
 4.11715e-01
 4.32001e-01
 4.52286e-01
 4.72572e-01
 4.92858e-01
 5.13143e-01
 5.33429e-01
 5.53715e-01
 5.74001e-01
 5.94286e-01
 6.14572e-01
 6.34858e-01
 6.55143e-01
 6.75429e-01
 6.95715e-01
 7.16000e-01
 7.36286e-01
 7.56572e-01
 7.76857e-01
 7.97143e-01
 8.17429e-01
 8.37714e-01
 8.58000e-01
 8.78286e-01
 8.98572e-01
 9.18857e-01
 9.39143e-01
 9.59429e-01
 9.79714e-01
 1.00000e+00
)


51
(
 1.00000e-60
 1.76992e-02
 3.64148e-02
 5.54070e-02
 7.45587e-02
 9.38319e-02
 1.13209e-01
 1.32678e-01
 1.52233e-01
 1.71865e-01
 1.91571e-01
 2.11344e-01
 2.31178e-01
 2.51070e-01
 2.71015e-01
 2.91007e-01
 3.11042e-01
 3.31116e-01
 3.51225e-01
 3.71365e-01
 3.91533e-01
 4.11724e-01
 4.31937e-01
 4.52167e-01
 4.72413e-01
 4.92671e-01
 5.12940e-01
 5.33218e-01
 5.53503e-01
 5.73794e-01
 5.94088e-01
 6.14386e-01
 6.34686e-01
 6.54987e-01
 6.75288e-01
 6.95590e-01
 7.15892e-01
 7.36193e-01
 7.56493e-01
 7.76793e-01
 7.97091e-01
 8.17389e-01
 8.37686e-01
 8.57982e-01
 8.78277e-01
 8.98572e-01
 9.18865e-01
 9.39158e-01
 9.59450e-01
 9.79736e-01
 1.00000e+00
)


51
(
 1.00000e-60
 1.83905e-02
 3.75539e-02
 5.69398e-02
 7.64371e-02
 9.60074e-02
 1.15633e-01
 1.35305e-01
 1.55018e-01
 1.74768e-01
 1.94552e-01
 2.14367e-01
 2.34212e-01
 2.54085e-01
 2.73985e-01
 2.93910e-01
 3.13859e-01
 3.33831e-01
 3.53824e-01
 3.73838e-01
 3.93872e-01
 4.13924e-01
 4.33993e-01
 4.54080e-01
 4.74182e-01
 4.94298e-01
 5.14429e-01
 5.34573e-01
 5.54730e-01
 5.74898e-01
 5.95078e-01
 6.15268e-01
 6.35467e-01
 6.55675e-01
 6.75892e-01
 6.96117e-01
 7.16349e-01
 7.36588e-01
 7.56833e-01
 7.77084e-01
 7.97341e-01
 8.17602e-01
 8.37867e-01
 8.58137e-01
 8.78410e-01
 8.98685e-01
 9.18963e-01
 9.39241e-01
 9.59516e-01
 9.79781e-01
 1.00000e+00
)


51
(
 1.00000e-60
 1.90383e-02
 3.84890e-02
 5.81038e-02
 7.78072e-02
 9.75662e-02
 1.17364e-01
 1.37192e-01
 1.57043e-01
 1.76915e-01
 1.96805e-01
 2.16710e-01
 2.36630e-01
 2.56563e-01
 2.76509e-01
 2.96467e-01
 3.16436e-01