/*--------------------------------*- C++ -*----------------------------------*\
| =========                 |                                                 |
| \      /  F ield          | OpenFOAM: The Open Source CFD Toolbox           |
|  \    /   O peration      | Version:  7                                     |
|   \  /    A nd            | Web:      http://www.OpenFOAM.com               |
|    \/     M anipulation   |                                                 |
\*---------------------------------------------------------------------------*/
FoamFile 
{   version     2.0;
    format      ascii;
    class       dictionary;
    location    "constant";
    object      LDMtable;
}
// * * * * * * * * * * * * * * * * * * * * * * * * * * * * * * * * * * * * * //

CO2_table
5
(

51
(

5
(

51
(
 1.00000e-60
 1.09669e-30
 1.29037e-15
 6.41769e-19
 1.39194e-12
 5.62604e-09
 6.14891e-30
 7.15386e-30
 8.48012e-30
 1.01810e-29
 1.19905e-29
 1.34848e-29
 1.38060e-29
 1.37259e-29
 1.34202e-29
 1.29413e-29
 1.24971e-29
 1.20103e-29
 1.15234e-29
 1.10220e-29
 1.05642e-29
 1.01682e-29
 9.75985e-30
 9.34152e-30
 8.93854e-30
 8.57342e-30
 8.22430e-30
 7.87915e-30
 7.54008e-30
 7.23354e-30
 6.98266e-30
 6.73697e-30
 6.45214e-30
 6.15702e-30
 5.83921e-30
 5.50605e-30
 5.15772e-30
 4.80116e-30
 4.43298e-30
 4.05818e-30
 3.68289e-30
 3.30894e-30
 2.93911e-30
 2.57140e-30
 2.20402e-30
 1.83658e-30
 1.47013e-30
 1.10399e-30
 7.37785e-31
 3.70796e-31
 1.00000e-60
)


51
(
 1.00000e-60
 0.00000e+00
 0.00000e+00
 0.00000e+00
 0.00000e+00
 0.00000e+00
 0.00000e+00
 0.00000e+00
 0.00000e+00
 0.00000e+00
 0.00000e+00
 0.00000e+00
 0.00000e+00
 0.00000e+00
 0.00000e+00
 0.00000e+00
 0.00000e+00
 0.00000e+00
 0.00000e+00
 0.00000e+00
 0.00000e+00
 0.00000e+00
 0.00000e+00
 0.00000e+00
 0.00000e+00
 0.00000e+00
 0.00000e+00
 0.00000e+00
 0.00000e+00
 0.00000e+00
 0.00000e+00
 0.00000e+00
 0.00000e+00
 0.00000e+00
 0.00000e+00
 0.00000e+00
 0.00000e+00
 0.00000e+00
 0.00000e+00
 0.00000e+00
 0.00000e+00
 0.00000e+00
 0.00000e+00
 0.00000e+00
 0.00000e+00
 0.00000e+00
 0.00000e+00
 0.00000e+00
 0.00000e+00
 0.00000e+00
 1.00000e-60
)


51
(
 1.00000e-60
 0.00000e+00
 0.00000e+00
 0.00000e+00
 0.00000e+00
 0.00000e+00
 0.00000e+00
 0.00000e+00
 0.00000e+00
 0.00000e+00
 0.00000e+00
 0.00000e+00
 0.00000e+00
 0.00000e+00
 0.00000e+00
 0.00000e+00
 0.00000e+00
 0.00000e+00
 0.00000e+00
 0.00000e+00
 0.00000e+00
 0.00000e+00
 0.00000e+00
 0.00000e+00
 0.00000e+00
 0.00000e+00
 0.00000e+00
 0.00000e+00
 0.00000e+00
 0.00000e+00
 0.00000e+00
 0.00000e+00
 0.00000e+00
 0.00000e+00
 0.00000e+00
 0.00000e+00
 0.00000e+00
 0.00000e+00
 0.00000e+00
 0.00000e+00
 0.00000e+00
 0.00000e+00
 0.00000e+00
 0.00000e+00
 0.00000e+00
 0.00000e+00
 0.00000e+00
 0.00000e+00
 0.00000e+00
 0.00000e+00
 1.00000e-60
)


51
(
 1.00000e-60
 0.00000e+00
 0.00000e+00
 0.00000e+00
 0.00000e+00
 0.00000e+00
 0.00000e+00
 0.00000e+00
 0.00000e+00
 0.00000e+00
 0.00000e+00
 0.00000e+00
 0.00000e+00
 0.00000e+00
 0.00000e+00
 0.00000e+00
 0.00000e+00
 0.00000e+00
 0.00000e+00
 0.00000e+00
 0.00000e+00
 0.00000e+00
 0.00000e+00
 0.00000e+00
 0.00000e+00
 0.00000e+00
 0.00000e+00
 0.00000e+00
 0.00000e+00
 0.00000e+00
 0.00000e+00
 0.00000e+00
 0.00000e+00
 0.00000e+00
 0.00000e+00
 0.00000e+00
 0.00000e+00
 0.00000e+00
 0.00000e+00
 0.00000e+00
 0.00000e+00
 0.00000e+00
 0.00000e+00
 0.00000e+00
 0.00000e+00
 0.00000e+00
 0.00000e+00
 0.00000e+00
 0.00000e+00
 0.00000e+00
 1.00000e-60
)


51
(
 1.00000e-60
 1.00000e-60
 1.00000e-60
 1.00000e-60
 1.00000e-60
 1.00000e-60
 1.00000e-60
 1.00000e-60
 1.00000e-60
 1.00000e-60
 1.00000e-60
 1.00000e-60
 1.00000e-60
 1.00000e-60
 1.00000e-60
 1.00000e-60
 1.00000e-60
 1.00000e-60
 1.00000e-60
 1.00000e-60
 1.00000e-60
 1.00000e-60
 1.00000e-60
 1.00000e-60
 1.00000e-60
 1.00000e-60
 1.00000e-60
 1.00000e-60
 1.00000e-60
 1.00000e-60
 1.00000e-60
 1.00000e-60
 1.00000e-60
 1.00000e-60
 1.00000e-60
 1.00000e-60
 1.00000e-60
 1.00000e-60
 1.00000e-60
 1.00000e-60
 1.00000e-60
 1.00000e-60
 1.00000e-60
 1.00000e-60
 1.00000e-60
 1.00000e-60
 1.00000e-60
 1.00000e-60
 1.00000e-60
 1.00000e-60
 1.00000e-60
)


)


5
(

51
(
 1.00000e-60
 1.43240e-04
 1.35518e-05
 1.08219e-05
 7.85184e-06
 1.63518e-05
 4.32865e-04
 4.25166e-04
 4.15928e-04
 4.06077e-04
 3.95730e-04
 3.84649e-04
 3.72996e-04
 3.61463e-04
 1.41634e-03
 1.37700e-03
 1.33765e-03
 1.29830e-03
 1.25896e-03
 1.21961e-03
 1.18027e-03
 1.14092e-03
 1.10158e-03
 1.06223e-03
 1.02289e-03
 9.83548e-04
 9.44205e-04
 9.04863e-04
 8.65520e-04
 8.26178e-04
 7.86836e-04
 7.47493e-04
 7.08152e-04
 6.68809e-04
 6.29467e-04
 5.90125e-04
 5.50784e-04
 5.11442e-04
 4.72100e-04
 4.32758e-04
 3.93416e-04
 3.54075e-04
 3.14733e-04
 2.75391e-04
 2.36050e-04
 1.96708e-04
 1.57366e-04
 1.18025e-04
 7.86832e-05
 3.93416e-05
 1.00000e-60
)


51
(
 1.00000e-60
 7.77945e-05
 1.34837e-04
 1.85494e-04
 2.32282e-04
 2.76161e-04
 3.17626e-04
 3.56958e-04
 3.94315e-04
 4.29767e-04
 4.63324e-04
 4.94948e-04
 5.24570e-04
 5.52101e-04
 5.77435e-04
 6.00467e-04
 6.21089e-04
 6.39205e-04
 6.54725e-04
 6.67578e-04
 6.77708e-04
 6.85076e-04
 6.89664e-04
 6.91471e-04
 6.90517e-04
 6.86836e-04
 6.80483e-04
 6.71525e-04
 6.60043e-04
 6.46131e-04
 6.29892e-04
 6.11438e-04
 5.90886e-04
 5.68358e-04
 5.43980e-04
 5.17876e-04
 4.90173e-04
 4.60994e-04
 4.30460e-04
 3.98688e-04
 3.65788e-04
 3.31867e-04
 2.97025e-04
 2.61354e-04
 2.24945e-04
 1.87884e-04
 1.50262e-04
 1.12189e-04
 7.38413e-05
 3.56706e-05
 1.00000e-60
)


51
(
 1.00000e-60
 5.46010e-05
 9.43849e-05
 1.29246e-04
 1.61131e-04
 1.90718e-04
 2.18310e-04
 2.44070e-04
 2.68093e-04
 2.90443e-04
 3.11165e-04
 3.30291e-04
 3.47847e-04
 3.63852e-04
 3.78326e-04
 3.91280e-04
 4.02730e-04
 4.12685e-04
 4.21158e-04
 4.28157e-04
 4.33694e-04
 4.37778e-04
 4.40420e-04
 4.41630e-04
 4.41418e-04
 4.39797e-04
 4.36779e-04
 4.32376e-04
 4.26601e-04
 4.19470e-04
 4.10998e-04
 4.01200e-04
 3.90093e-04
 3.77696e-04
 3.64028e-04
 3.49107e-04
 3.32956e-04
 3.15596e-04
 2.97050e-04
 2.77342e-04
 2.56499e-04
 2.34548e-04
 2.11519e-04
 1.87446e-04
 1.62370e-04
 1.36341e-04
 1.09430e-04
 8.17500e-05
 5.35311e-05
 2.53942e-05
 1.00000e-60
)


51
(
 1.00000e-60
 3.01466e-05
 5.22635e-05
 7.09585e-05
 8.75591e-05
 1.02642e-04
 1.16499e-04
 1.29294e-04
 1.41129e-04
 1.52067e-04
 1.62155e-04
 1.71423e-04
 1.79897e-04
 1.87593e-04
 1.94528e-04
 2.00712e-04
 2.06155e-04
 2.10867e-04
 2.14855e-04
 2.18126e-04
 2.20685e-04
 2.22539e-04
 2.23693e-04
 2.24152e-04
 2.23920e-04
 2.23002e-04
 2.21404e-04
 2.19128e-04
 2.16180e-04
 2.12565e-04
 2.08285e-04
 2.03347e-04
 1.97754e-04
 1.91511e-04
 1.84624e-04
 1.77097e-04
 1.68936e-04
 1.60147e-04
 1.50737e-04
 1.40714e-04
 1.30087e-04
 1.18867e-04
 1.07069e-04
 9.47098e-05
 8.18172e-05
 6.84296e-05
 5.46090e-05
 4.04634e-05
 2.62034e-05
 1.23100e-05
 1.00000e-60
)


51
(
 1.00000e-60
 1.00000e-60
 1.00000e-60
 1.00000e-60
 1.00000e-60
 1.00000e-60
 1.00000e-60
 1.00000e-60
 1.00000e-60
 1.00000e-60
 1.00000e-60
 1.00000e-60
 1.00000e-60
 1.00000e-60
 1.00000e-60
 1.00000e-60
 1.00000e-60
 1.00000e-60
 1.00000e-60
 1.00000e-60
 1.00000e-60
 1.00000e-60
 1.00000e-60
 1.00000e-60
 1.00000e-60
 1.00000e-60
 1.00000e-60
 1.00000e-60
 1.00000e-60
 1.00000e-60
 1.00000e-60
 1.00000e-60
 1.00000e-60
 1.00000e-60
 1.00000e-60
 1.00000e-60
 1.00000e-60
 1.00000e-60
 1.00000e-60
 1.00000e-60
 1.00000e-60
 1.00000e-60
 1.00000e-60
 1.00000e-60
 1.00000e-60
 1.00000e-60
 1.00000e-60
 1.00000e-60
 1.00000e-60
 1.00000e-60
 1.00000e-60
)


)


5
(

51
(
 1.00000e-60
 2.86480e-04
 1.40400e-04
 1.12387e-04
 8.12526e-05
 7.77184e-05
 8.65730e-04
 8.50332e-04
 8.31857e-04
 8.12155e-04
 7.91460e-04
 7.69298e-04
 7.45992e-04
 7.22925e-04
 2.83269e-03
 2.75399e-03
 2.67530e-03
 2.59660e-03
 2.51791e-03
 2.43922e-03
 2.36053e-03
 2.28184e-03
 2.20316e-03
 2.12447e-03
 2.04578e-03
 1.96710e-03
 1.88841e-03
 1.80973e-03
 1.73104e-03
 1.65236e-03
 1.57367e-03
 1.49499e-03
 1.41630e-03
 1.33762e-03
 1.25893e-03
 1.18025e-03
 1.10157e-03
 1.02288e-03
 9.44200e-04
 8.65516e-04
 7.86833e-04
 7.08149e-04
 6.29466e-04
 5.50783e-04
 4.72099e-04
 3.93416e-04
 3.14733e-04
 2.36050e-04
 1.57366e-04
 7.86832e-05
 1.00000e-60
)


51
(
 1.00000e-60
 1.53587e-04
 2.65572e-04
 3.65608e-04
 4.58652e-04
 5.46454e-04
 6.29835e-04
 7.09217e-04
 7.84797e-04
 8.56626e-04
 9.24655e-04
 9.88762e-04
 1.04878e-03
 1.10450e-03
 1.15572e-03
 1.20222e-03
 1.24379e-03
 1.28025e-03
 1.31143e-03
 1.33720e-03
 1.35746e-03
 1.37214e-03
 1.38123e-03
 1.38473e-03
 1.38268e-03
 1.37518e-03
 1.36232e-03
 1.34426e-03
 1.32115e-03
 1.29319e-03
 1.26058e-03
 1.22356e-03
 1.18235e-03
 1.13720e-03
 1.08836e-03
 1.03608e-03
 9.80610e-04
 9.22200e-04
 8.61088e-04
 7.97507e-04
 7.31678e-04
 6.63811e-04
 5.94106e-04
 5.22750e-04
 4.49920e-04
 3.75789e-04
 3.00537e-04
 2.24385e-04
 1.47686e-04
 7.13424e-05
 1.00000e-60
)


51
(
 1.00000e-60
 1.08632e-04
 1.87387e-04
 2.56379e-04
 3.19552e-04
 3.78262e-04
 4.33106e-04
 4.84396e-04
 5.32310e-04
 5.76961e-04
 6.18424e-04
 6.56753e-04
 6.91990e-04
 7.24163e-04
 7.53301e-04
 7.79423e-04
 8.02548e-04
 8.22695e-04
 8.39879e-04
 8.54117e-04
 8.65426e-04
 8.73823e-04
 8.79326e-04
 8.81953e-04
 8.81726e-04
 8.78665e-04
 8.72796e-04
 8.64142e-04
 8.52732e-04
 8.38593e-04
 8.21756e-04
 8.02255e-04
 7.80123e-04
 7.55397e-04
 7.28115e-04
 6.98319e-04
 6.66051e-04
 6.31355e-04
 5.94278e-04
 5.54871e-04
 5.13185e-04
 4.69277e-04
 4.23208e-04
 3.75048e-04
 3.24878e-04
 2.72798e-04
 2.18950e-04
 1.63565e-04
 1.07101e-04
 5.08031e-05
 1.00000e-60
)


51
(
 1.00000e-60
 6.01637e-05
 1.04160e-04
 1.41289e-04
 1.74235e-04
 2.04162e-04
 2.31658e-04
 2.57054e-04
 2.80550e-04
 3.02278e-04
 3.22325e-04
 3.40755e-04
 3.57615e-04
 3.72939e-04
 3.86756e-04
 3.99089e-04
 4.09956e-04
 4.19374e-04
 4.27356e-04
 4.33916e-04
 4.39064e-04
 4.42811e-04
 4.45166e-04
 4.46139e-04
 4.45738e-04
 4.43972e-04
 4.40849e-04
 4.36378e-04
 4.30565e-04
 4.23420e-04
 4.14951e-04
 4.05166e-04
 3.94074e-04
 3.81683e-04
 3.68004e-04
 3.53046e-04
 3.36819e-04
 3.19336e-04
 3.00610e-04
 2.80656e-04
 2.59493e-04
 2.37141e-04
 2.13630e-04
 1.88995e-04
 1.63290e-04
 1.36591e-04
 1.09022e-04
 8.07974e-05
 5.23365e-05
 2.45971e-05
 1.00000e-60
)


51
(
 1.00000e-60
 1.00000e-60
 1.00000e-60
 1.00000e-60
 1.00000e-60
 1.00000e-60
 1.00000e-60
 1.00000e-60
 1.00000e-60
 1.00000e-60
 1.00000e-60
 1.00000e-60
 1.00000e-60
 1.00000e-60
 1.00000e-60
 1.00000e-60
 1.00000e-60
 1.00000e-60
 1.00000e-60
 1.00000e-60
 1.00000e-60
 1.00000e-60
 1.00000e-60
 1.00000e-60
 1.00000e-60
 1.00000e-60
 1.00000e-60
 1.00000e-60
 1.00000e-60
 1.00000e-60
 1.00000e-60
 1.00000e-60
 1.00000e-60
 1.00000e-60
 1.00000e-60
 1.00000e-60
 1.00000e-60
 1.00000e-60
 1.00000e-60
 1.00000e-60
 1.00000e-60
 1.00000e-60
 1.00000e-60
 1.00000e-60
 1.00000e-60
 1.00000e-60
 1.00000e-60
 1.00000e-60
 1.00000e-60
 1.00000e-60
 1.00000e-60
)


)


5
(

51
(
 1.00000e-60
 4.29721e-04
 3.96004e-04
 3.17770e-04
 2.29387e-04
 1.86556e-04
 1.29859e-03
 1.27550e-03
 1.24778e-03
 1.21823e-03
 1.18719e-03
 1.15395e-03
 1.11899e-03
 1.08439e-03
 4.24903e-03
 4.13099e-03
 4.01295e-03
 3.89491e-03
 3.77687e-03
 3.65883e-03
 3.54080e-03
 3.42277e-03
 3.30473e-03
 3.18670e-03
 3.06867e-03
 2.95064e-03
 2.83262e-03
 2.71459e-03
 2.59656e-03
 2.47853e-03
 2.36051e-03
 2.24248e-03
 2.12445e-03
 2.00643e-03
 1.88840e-03
 1.77038e-03
 1.65235e-03
 1.53433e-03
 1.41630e-03
 1.29827e-03
 1.18025e-03
 1.06222e-03
 9.44199e-04
 8.26174e-04
 7.08149e-04
 5.90124e-04
 4.72099e-04
 3.54075e-04
 2.36050e-04
 1.18025e-04
 1.00000e-60
)


51
(
 1.00000e-60
 2.34392e-04
 4.07612e-04
 5.62199e-04
 7.05372e-04
 8.39774e-04
 9.66718e-04
 1.08693e-03
 1.20082e-03
 1.30855e-03
 1.41015e-03
 1.50553e-03
 1.59450e-03
 1.67685e-03
 1.75231e-03
 1.82062e-03
 1.88150e-03
 1.93472e-03
 1.98005e-03
 2.01733e-03
 2.04641e-03
 2.06722e-03
 2.07972e-03
 2.08394e-03
 2.07994e-03
 2.06783e-03
 2.04780e-03
 2.02004e-03
 1.98480e-03
 1.94235e-03
 1.89300e-03
 1.83709e-03
 1.77496e-03
 1.70696e-03
 1.63348e-03
 1.55487e-03
 1.47151e-03
 1.38377e-03
 1.29200e-03
 1.19654e-03
 1.09773e-03
 9.95874e-04
 8.91274e-04
 7.84207e-04
 6.74937e-04
 5.63721e-04
 4.50830e-04
 3.36591e-04
 2.21536e-04
 1.07016e-04
 1.00000e-60
)


51
(
 1.00000e-60
 1.64205e-04
 2.84257e-04
 3.89629e-04
 4.86107e-04
 5.75692e-04
 6.59277e-04
 7.37331e-04
 8.10134e-04
 8.77867e-04
 9.40655e-04
 9.98593e-04
 1.05175e-03
 1.10020e-03
 1.14397e-03
 1.18312e-03
 1.21769e-03
 1.24770e-03
 1.27321e-03
 1.29423e-03
 1.31081e-03
 1.32297e-03
 1.33076e-03
 1.33420e-03
 1.33334e-03
 1.32821e-03
 1.31886e-03
 1.30532e-03
 1.28764e-03
 1.26587e-03
 1.24006e-03
 1.21026e-03
 1.17652e-03
 1.13891e-03
 1.09747e-03
 1.05228e-03
 1.00340e-03
 9.50903e-04
 8.94851e-04
 8.35323e-04
 7.72399e-04
 7.06164e-04
 6.36710e-04
 5.64142e-04
 4.88580e-04
 4.10176e-04
 3.29145e-04
 2.45830e-04
 1.60924e-04
 7.63015e-05
 1.00000e-60
)


51
(
 1.00000e-60
 9.05409e-05
 1.57089e-04
 2.13406e-04
 2.63452e-04
 3.08947e-04
 3.50763e-04
 3.89389e-04
 4.25124e-04
 4.58162e-04
 4.88636e-04
 5.16641e-04
 5.42248e-04
 5.65511e-04
 5.86473e-04
 6.05171e-04
 6.21633e-04
 6.35885e-04
 6.47950e-04
 6.57848e-04
 6.65597e-04
 6.71215e-04
 6.74716e-04
 6.76117e-04
 6.75432e-04
 6.72674e-04
 6.67858e-04
 6.60998e-04
 6.52105e-04
 6.41195e-04
 6.28281e-04
 6.13375e-04
 5.96493e-04
 5.77650e-04
 5.56859e-04
 5.34138e-04
 5.09504e-04
 4.82975e-04
 4.54572e-04
 4.24321e-04
 3.92247e-04
 3.58387e-04
 3.22783e-04
 2.85492e-04
 2.46594e-04
 2.06208e-04
 1.64523e-04
 1.21866e-04
 7.88775e-05
 3.70206e-05
 1.00000e-60
)


51
(
 1.00000e-60
 1.00000e-60
 1.00000e-60
 1.00000e-60
 1.00000e-60
 1.00000e-60
 1.00000e-60
 1.00000e-60
 1.00000e-60
 1.00000e-60
 1.00000e-60
 1.00000e-60
 1.00000e-60
 1.00000e-60
 1.00000e-60
 1.00000e-60
 1.00000e-60
 1.00000e-60
 1.00000e-60
 1.00000e-60
 1.00000e-60
 1.00000e-60
 1.00000e-60
 1.00000e-60
 1.00000e-60
 1.00000e-60
 1.00000e-60
 1.00000e-60
 1.00000e-60
 1.00000e-60
 1.00000e-60
 1.00000e-60
 1.00000e-60
 1.00000e-60
 1.00000e-60
 1.00000e-60
 1.00000e-60
 1.00000e-60
 1.00000e-60
 1.00000e-60
 1.00000e-60
 1.00000e-60
 1.00000e-60
 1.00000e-60
 1.00000e-60
 1.00000e-60
 1.00000e-60
 1.00000e-60
 1.00000e-60
 1.00000e-60
 1.00000e-60
)


)


5
(

51
(
 1.00000e-60
 5.72961e-04
 7.74639e-04
 6.23168e-04
 4.49228e-04
 3.41150e-04
 1.73146e-03
 1.70066e-03
 1.66371e-03
 1.62431e-03
 1.58292e-03
 1.53860e-03
 1.49198e-03
 1.44585e-03
 5.66537e-03
 5.50799e-03
 5.35060e-03
 5.19321e-03
 5.03582e-03
 4.87844e-03
 4.72107e-03
 4.56369e-03
 4.40631e-03
 4.24894e-03
 4.09156e-03
 3.93419e-03
 3.77682e-03
 3.61945e-03
 3.46208e-03
 3.30471e-03
 3.14734e-03
 2.98997e-03
 2.83261e-03
 2.67524e-03
 2.51787e-03
 2.36050e-03
 2.20313e-03
 2.04577e-03
 1.88840e-03
 1.73103e-03
 1.57367e-03
 1.41630e-03
 1.25893e-03
 1.10157e-03
 9.44199e-04
 7.86833e-04
 6.29466e-04
 4.72099e-04
 3.14733e-04
 1.57366e-04
 1.00000e-60
)


51
(
 1.00000e-60
 3.20000e-04
 5.60492e-04
 7.74590e-04
 9.71606e-04
 1.15518e-03
 1.32726e-03
 1.48906e-03
 1.64133e-03
 1.78451e-03
 1.91882e-03
 2.04431e-03
 2.16087e-03
 2.26834e-03
 2.36648e-03
 2.45500e-03
 2.53362e-03
 2.60208e-03
 2.66013e-03
 2.70755e-03
 2.74421e-03
 2.76999e-03
 2.78487e-03
 2.78886e-03
 2.78207e-03
 2.76464e-03
 2.73678e-03
 2.69875e-03
 2.65089e-03
 2.59354e-03
 2.52709e-03
 2.45199e-03
 2.36867e-03
 2.27762e-03
 2.17931e-03
 2.07423e-03
 1.96286e-03
 1.84568e-03
 1.72317e-03
 1.59577e-03
 1.46393e-03
 1.32805e-03
 1.18853e-03
 1.04572e-03
 8.99995e-04
 7.51681e-04
 6.01140e-04
 4.48808e-04
 2.95391e-04
 1.42691e-04
 1.00000e-60
)


51
(
 1.00000e-60
 2.21257e-04
 3.84833e-04
 5.28743e-04
 6.60461e-04
 7.82602e-04
 8.96353e-04
 1.00236e-03
 1.10101e-03
 1.19257e-03
 1.27724e-03
 1.35518e-03
 1.42650e-03
 1.49131e-03
 1.54969e-03
 1.60174e-03
 1.64752e-03
 1.68710e-03
 1.72055e-03
 1.74792e-03
 1.76928e-03
 1.78469e-03
 1.79421e-03
 1.79789e-03
 1.79580e-03
 1.78800e-03
 1.77455e-03
 1.75552e-03
 1.73097e-03
 1.70097e-03
 1.66560e-03
 1.62493e-03
 1.57903e-03
 1.52799e-03
 1.47189e-03
 1.41081e-03
 1.34484e-03
 1.27409e-03
 1.19863e-03
 1.11858e-03
 1.03404e-03
 9.45122e-04
 8.51952e-04
 7.54667e-04
 6.53429e-04
 5.48441e-04
 4.39986e-04
 3.28527e-04
 2.14989e-04
 1.01886e-04
 1.00000e-60
)


51
(
 1.00000e-60
 1.21263e-04
 2.11009e-04
 2.87234e-04
 3.55103e-04
 4.16863e-04
 4.73651e-04
 5.26111e-04
 5.74637e-04
 6.19486e-04
 6.60834e-04
 6.98811e-04
 7.33512e-04
 7.65012e-04
 7.93372e-04
 8.18641e-04
 8.40862e-04
 8.60072e-04
 8.76304e-04
 8.89588e-04
 8.99950e-04
 9.07417e-04
 9.12012e-04
 9.13759e-04
 9.12678e-04
 9.08792e-04
 9.02121e-04
 8.92686e-04
 8.80507e-04
 8.65605e-04
 8.47999e-04
 8.27712e-04
 8.04762e-04
 7.79172e-04
 7.50965e-04
 7.20164e-04
 6.86794e-04
 6.50881e-04
 6.12457e-04
 5.71555e-04
 5.28215e-04
 4.82484e-04
 4.34422e-04
 3.84109e-04
 3.31655e-04
 2.77221e-04
 2.21066e-04
 1.63638e-04
 1.05810e-04
 4.95752e-05
 1.00000e-60
)


51
(
 1.00000e-60
 1.00000e-60
 1.00000e-60
 1.00000e-60
 1.00000e-60
 1.00000e-60
 1.00000e-60
 1.00000e-60
 1.00000e-60
 1.00000e-60
 1.00000e-60
 1.00000e-60
 1.00000e-60
 1.00000e-60
 1.00000e-60
 1.00000e-60
 1.00000e-60
 1.00000e-60
 1.00000e-60
 1.00000e-60
 1.00000e-60
 1.00000e-60
 1.00000e-60
 1.00000e-60
 1.00000e-60
 1.00000e-60
 1.00000e-60
 1.00000e-60
 1.00000e-60
 1.00000e-60
 1.00000e-60
 1.00000e-60
 1.00000e-60
 1.00000e-60
 1.00000e-60
 1.00000e-60
 1.00000e-60
 1.00000e-60
 1.00000e-60
 1.00000e-60
 1.00000e-60
 1.00000e-60
 1.00000e-60
 1.00000e-60
 1.00000e-60
 1.00000e-60
 1.00000e-60
 1.00000e-60
 1.00000e-60
 1.00000e-60
 1.00000e-60
)


)


5
(

51
(
 1.00000e-60
 7.42303e-04
 1.27058e-03
 1.02478e-03
 7.37745e-04
 5.39781e-04
 2.16432e-03
 2.12583e-03
 2.07964e-03
 2.03039e-03
 1.97865e-03
 1.92324e-03
 1.86498e-03
 1.80731e-03
 7.08172e-03
 6.88498e-03
 6.68825e-03
 6.49151e-03
 6.29478e-03
 6.09805e-03
 5.90133e-03
 5.70461e-03
 5.50789e-03
 5.31117e-03
 5.11446e-03
 4.91774e-03
 4.72103e-03
 4.52431e-03
 4.32760e-03
 4.13089e-03
 3.93418e-03
 3.73747e-03
 3.54076e-03
 3.34405e-03
 3.14734e-03
 2.95063e-03
 2.75392e-03
 2.55721e-03
 2.36050e-03
 2.16379e-03
 1.96708e-03
 1.77037e-03
 1.57367e-03
 1.37696e-03
 1.18025e-03
 9.83541e-04
 7.86832e-04
 5.90124e-04
 3.93416e-04
 1.96708e-04
 1.00000e-60
)


51
(
 1.00000e-60
 4.17640e-04
 7.31697e-04
 1.00942e-03
 1.26294e-03
 1.49723e-03
 1.71511e-03
 1.91845e-03
 2.10852e-03
 2.28615e-03
 2.45187e-03
 2.60595e-03
 2.74846e-03
 2.87933e-03
 2.99840e-03
 3.10542e-03
 3.20013e-03
 3.28226e-03
 3.35153e-03
 3.40774e-03
 3.45070e-03
 3.48031e-03
 3.49652e-03
 3.49937e-03
 3.48896e-03
 3.46547e-03
 3.42915e-03
 3.38032e-03
 3.31935e-03
 3.24668e-03
 3.16279e-03
 3.06820e-03
 2.96346e-03
 2.84914e-03
 2.72583e-03
 2.59413e-03
 2.45463e-03
 2.30793e-03
 2.15460e-03
 1.99521e-03
 1.83028e-03
 1.66034e-03
 1.48586e-03
 1.30730e-03
 1.12509e-03
 9.39667e-04
 7.51466e-04
 5.61033e-04
 3.69251e-04
 1.78367e-04
 1.00000e-60
)


51
(
 1.00000e-60
 2.86170e-04
 4.96897e-04
 6.81695e-04
 8.50344e-04
 1.00629e-03
 1.15113e-03
 1.28573e-03
 1.41065e-03
 1.52628e-03
 1.63292e-03
 1.73078e-03
 1.82006e-03
 1.90094e-03
 1.97355e-03
 2.03802e-03
 2.09448e-03
 2.14304e-03
 2.18380e-03
 2.21686e-03
 2.24232e-03
 2.26027e-03
 2.27080e-03
 2.27400e-03
 2.26995e-03
 2.25876e-03
 2.24050e-03
 2.21527e-03
 2.18317e-03
 2.14427e-03
 2.09869e-03
 2.04652e-03
 1.98786e-03
 1.92282e-03
 1.85150e-03
 1.77400e-03
 1.69046e-03
 1.60097e-03
 1.50567e-03
 1.40468e-03
 1.29813e-03
 1.18617e-03
 1.06894e-03
 9.46629e-04
 8.19427e-04
 6.87590e-04
 5.51473e-04
 4.11655e-04
 2.69296e-04
 1.27556e-04
 1.00000e-60
)


51
(
 1.00000e-60
 1.56732e-04
 2.72175e-04
 3.69916e-04
 4.56740e-04
 5.35600e-04
 6.07996e-04
 6.74777e-04
 7.36463e-04
 7.93398e-04
 8.45817e-04
 8.93893e-04
 9.37755e-04
 9.77506e-04
 1.01323e-03
 1.04499e-03
 1.07286e-03
 1.09687e-03
 1.11708e-03
 1.13354e-03
 1.14627e-03
 1.15531e-03
 1.16071e-03
 1.16248e-03
 1.16067e-03
 1.15531e-03
 1.14641e-03
 1.13402e-03
 1.11816e-03
 1.09885e-03
 1.07614e-03
 1.05003e-03
 1.02058e-03
 9.87800e-04
 9.51726e-04
 9.12389e-04
 8.69825e-04
 8.24068e-04
 7.75159e-04
 7.23144e-04
 6.68074e-04
 6.10012e-04
 5.49036e-04
 4.85249e-04
 4.18793e-04
 3.49876e-04
 2.78830e-04
 2.06230e-04
 1.33196e-04
 6.22810e-05
 1.00000e-60
)


51
(
 1.00000e-60
 1.00000e-60
 1.00000e-60
 1.00000e-60
 1.00000e-60
 1.00000e-60
 1.00000e-60
 1.00000e-60
 1.00000e-60
 1.00000e-60
 1.00000e-60
 1.00000e-60
 1.00000e-60
 1.00000e-60
 1.00000e-60
 1.00000e-60
 1.00000e-60
 1.00000e-60
 1.00000e-60
 1.00000e-60
 1.00000e-60
 1.00000e-60
 1.00000e-60
 1.00000e-60
 1.00000e-60
 1.00000e-60
 1.00000e-60
 1.00000e-60
 1.00000e-60
 1.00000e-60
 1.00000e-60
 1.00000e-60
 1.00000e-60
 1.00000e-60
 1.00000e-60
 1.00000e-60
 1.00000e-60
 1.00000e-60
 1.00000e-60
 1.00000e-60
 1.00000e-60
 1.00000e-60
 1.00000e-60
 1.00000e-60
 1.00000e-60
 1.00000e-60
 1.00000e-60
 1.00000e-60
 1.00000e-60
 1.00000e-60
 1.00000e-60
)


)


5
(

51
(
 1.00000e-60
 9.72820e-04
 1.87812e-03
 1.51881e-03
 1.09191e-03
 7.80736e-04
 2.59719e-03
 2.55100e-03
 2.49557e-03
 2.43646e-03
 2.37438e-03
 2.30789e-03
 2.23797e-03
 2.16878e-03
 8.49806e-03
 8.26198e-03
 8.02589e-03
 7.78981e-03
 7.55374e-03
 7.31767e-03
 7.08160e-03
 6.84553e-03
 6.60947e-03
 6.37341e-03
 6.13735e-03
 5.90129e-03
 5.66523e-03
 5.42918e-03
 5.19312e-03
 4.95707e-03
 4.72101e-03
 4.48496e-03
 4.24891e-03
 4.01286e-03
 3.77680e-03
 3.54075e-03
 3.30470e-03
 3.06865e-03
 2.83260e-03
 2.59655e-03
 2.36050e-03
 2.12445e-03
 1.88840e-03
 1.65235e-03
 1.41630e-03
 1.18025e-03
 9.44199e-04
 7.08149e-04
 4.72099e-04
 2.36050e-04
 1.00000e-60
)


51
(
 1.00000e-60
 5.36879e-04
 9.31214e-04
 1.27565e-03
 1.58699e-03
 1.87221e-03
 2.13537e-03
 2.37918e-03
 2.60559e-03
 2.81595e-03
 3.01117e-03
 3.19184e-03
 3.35826e-03
 3.51052e-03
 3.64856e-03
 3.77220e-03
 3.88121e-03
 3.97532e-03
 4.05428e-03
 4.11784e-03
 4.16582e-03
 4.19808e-03
 4.21459e-03
 4.21536e-03
 4.20051e-03
 4.17024e-03
 4.12484e-03
 4.06465e-03
 3.99012e-03
 3.90173e-03
 3.80006e-03
 3.68569e-03
 3.55928e-03
 3.42149e-03
 3.27302e-03
 3.11456e-03
 2.94682e-03
 2.77050e-03
 2.58628e-03
 2.39483e-03
 2.19678e-03
 1.99273e-03
 1.78326e-03
 1.56892e-03
 1.35023e-03
 1.12768e-03
 9.01809e-04
 6.73269e-04
 4.43115e-04
 2.14045e-04
 1.00000e-60
)


51
(
 1.00000e-60
 3.67351e-04
 6.30724e-04
 8.59049e-04
 1.06602e-03
 1.25648e-03
 1.43267e-03
 1.59584e-03
 1.74678e-03
 1.88605e-03
 2.01407e-03
 2.13119e-03
 2.23769e-03
 2.33381e-03
 2.41978e-03
 2.49577e-03
 2.56198e-03
 2.61856e-03
 2.66567e-03
 2.70345e-03
 2.73203e-03
 2.75156e-03
 2.76215e-03
 2.76394e-03
 2.75703e-03
 2.74156e-03
 2.71764e-03
 2.68538e-03
 2.64492e-03
 2.59636e-03
 2.53984e-03
 2.47547e-03
 2.40338e-03
 2.32369e-03
 2.23655e-03
 2.14207e-03
 2.04041e-03
 1.93169e-03
 1.81607e-03
 1.69370e-03
 1.56474e-03
 1.42935e-03
 1.28772e-03
 1.14005e-03
 9.86592e-04
 8.27637e-04
 6.63614e-04
 4.95217e-04
 3.23846e-04
 1.53311e-04
 1.00000e-60
)


51
(
 1.00000e-60
 2.02738e-04
 3.48825e-04
 4.70862e-04
 5.78317e-04
 6.75310e-04
 7.63935e-04
 8.45376e-04
 9.20362e-04
 9.89369e-04
 1.05273e-03
 1.11068e-03
 1.16341e-03
 1.21106e-03
 1.25374e-03
 1.29155e-03
 1.32457e-03
 1.35287e-03
 1.37652e-03
 1.39558e-03
 1.41010e-03
 1.42013e-03
 1.42571e-03
 1.42690e-03
 1.42373e-03
 1.41624e-03
 1.40447e-03
 1.38847e-03
 1.36828e-03
 1.34392e-03
 1.31544e-03
 1.28287e-03
 1.24626e-03
 1.20564e-03
 1.16106e-03
 1.11255e-03
 1.06015e-03
 1.00392e-03
 9.43907e-04
 8.80165e-04
 8.12761e-04
 7.41774e-04
 6.67301e-04
 5.89469e-04
 5.08454e-04
 4.24516e-04
 3.38062e-04
 2.49804e-04
 1.61122e-04
 7.51662e-05
 1.00000e-60
)


51
(
 1.00000e-60
 1.00000e-60
 1.00000e-60
 1.00000e-60
 1.00000e-60
 1.00000e-60
 1.00000e-60
 1.00000e-60
 1.00000e-60
 1.00000e-60
 1.00000e-60
 1.00000e-60
 1.00000e-60
 1.00000e-60
 1.00000e-60
 1.00000e-60
 1.00000e-60
 1.00000e-60
 1.00000e-60
 1.00000e-60
 1.00000e-60
 1.00000e-60
 1.00000e-60
 1.00000e-60
 1.00000e-60
 1.00000e-60
 1.00000e-60
 1.00000e-60
 1.00000e-60
 1.00000e-60
 1.00000e-60
 1.00000e-60
 1.00000e-60
 1.00000e-60
 1.00000e-60
 1.00000e-60
 1.00000e-60
 1.00000e-60
 1.00000e-60
 1.00000e-60
 1.00000e-60
 1.00000e-60
 1.00000e-60
 1.00000e-60
 1.00000e-60
 1.00000e-60
 1.00000e-60
 1.00000e-60
 1.00000e-60
 1.00000e-60
 1.00000e-60
)


)


5
(

51
(
 1.00000e-60
 1.23705e-03
 2.59151e-03
 2.10145e-03
 1.50870e-03
 1.06230e-03
 3.03005e-03
 2.97616e-03
 2.91150e-03
 2.84254e-03
 2.77011e-03
 2.69254e-03
 2.61097e-03
 2.53024e-03
 9.91441e-03
 9.63897e-03
 9.36354e-03
 9.08812e-03
 8.81269e-03
 8.53728e-03
 8.26186e-03
 7.98645e-03
 7.71104e-03
 7.43564e-03
 7.16024e-03
 6.88484e-03
 6.60944e-03
 6.33404e-03
 6.05864e-03
 5.78325e-03
 5.50785e-03
 5.23245e-03
 4.95706e-03
 4.68167e-03
 4.40627e-03
 4.13088e-03
 3.85549e-03
 3.58009e-03
 3.30470e-03
 3.02931e-03
 2.75392e-03
 2.47852e-03
 2.20313e-03
 1.92774e-03
 1.65235e-03
 1.37696e-03
 1.10157e-03
 8.26174e-04
 5.50782e-04
 2.75391e-04
 1.00000e-60
)


51
(
 1.00000e-60
 6.69742e-04
 1.15027e-03
 1.56494e-03
 1.93620e-03
 2.27344e-03
 2.58216e-03
 2.86614e-03
 3.12812e-03
 3.37009e-03
 3.59347e-03
 3.79921e-03
 3.98792e-03
 4.15990e-03
 4.31524e-03
 4.45388e-03
 4.57562e-03
 4.68025e-03
 4.76750e-03
 4.83713e-03
 4.88895e-03
 4.92281e-03
 4.93865e-03
 4.93649e-03
 4.91644e-03
 4.87873e-03
 4.82365e-03
 4.75160e-03
 4.66306e-03
 4.55858e-03
 4.43880e-03
 4.30439e-03
 4.15608e-03
 3.99463e-03
 3.82084e-03
 3.63549e-03
 3.43941e-03
 3.23338e-03
 3.01820e-03
 2.79463e-03
 2.56341e-03
 2.32522e-03
 2.08075e-03
 1.83061e-03
 1.57540e-03
 1.31571e-03
 1.05217e-03
 7.85512e-04
 5.16983e-04
 2.49724e-04
 1.00000e-60
)


51
(
 1.00000e-60
 4.58005e-04
 7.77862e-04
 1.05196e-03
 1.29873e-03
 1.52471e-03
 1.73293e-03
 1.92508e-03
 2.10225e-03
 2.26521e-03
 2.41453e-03
 2.55068e-03
 2.67407e-03
 2.78503e-03
 2.88385e-03
 2.97082e-03
 3.04617e-03
 3.11014e-03
 3.16293e-03
 3.20473e-03
 3.23574e-03
 3.25613e-03
 3.26606e-03
 3.26571e-03
 3.25523e-03
 3.23477e-03
 3.20448e-03
 3.16453e-03
 3.11504e-03
 3.05618e-03
 2.98809e-03
 2.91092e-03
 2.82483e-03
 2.72995e-03
 2.62646e-03
 2.51451e-03
 2.39426e-03
 2.26587e-03
 2.12951e-03
 1.98537e-03
 1.83363e-03
 1.67447e-03
 1.50812e-03
 1.33481e-03
 1.15482e-03
 9.68505e-04
 7.76353e-04
 5.79178e-04
 3.78619e-04
 1.79146e-04
 1.00000e-60
)


51
(
 1.00000e-60
 2.54652e-04
 4.34336e-04
 5.82462e-04
 7.11734e-04
 8.27684e-04
 9.33120e-04
 1.02963e-03
 1.11820e-03
 1.19945e-03
 1.27385e-03
 1.34171e-03
 1.40327e-03
 1.45873e-03
 1.50823e-03
 1.55192e-03
 1.58989e-03
 1.62225e-03
 1.64907e-03
 1.67045e-03
 1.68644e-03
 1.69711e-03
 1.70253e-03
 1.70275e-03
 1.69783e-03
 1.68782e-03
 1.67278e-03
 1.65275e-03
 1.62778e-03
 1.59792e-03
 1.56323e-03
 1.52375e-03
 1.47952e-03
 1.43060e-03
 1.37703e-03
 1.31888e-03
 1.25619e-03
 1.18901e-03
 1.11742e-03
 1.04149e-03
 9.61287e-04
 8.76914e-04
 7.88488e-04
 6.96163e-04
 6.00150e-04
 5.00761e-04
 3.98487e-04
 2.94178e-04
 1.89491e-04
 8.81982e-05
 1.00000e-60
)


51
(
 1.00000e-60
 1.00000e-60
 1.00000e-60
 1.00000e-60
 1.00000e-60
 1.00000e-60
 1.00000e-60
 1.00000e-60
 1.00000e-60
 1.00000e-60
 1.00000e-60
 1.00000e-60
 1.00000e-60
 1.00000e-60
 1.00000e-60
 1.00000e-60
 1.00000e-60
 1.00000e-60
 1.00000e-60
 1.00000e-60
 1.00000e-60
 1.00000e-60
 1.00000e-60
 1.00000e-60
 1.00000e-60
 1.00000e-60
 1.00000e-60
 1.00000e-60
 1.00000e-60
 1.00000e-60
 1.00000e-60
 1.00000e-60
 1.00000e-60
 1.00000e-60
 1.00000e-60
 1.00000e-60
 1.00000e-60
 1.00000e-60
 1.00000e-60
 1.00000e-60
 1.00000e-60
 1.00000e-60
 1.00000e-60
 1.00000e-60
 1.00000e-60
 1.00000e-60
 1.00000e-60
 1.00000e-60
 1.00000e-60
 1.00000e-60
 1.00000e-60
)


)


5
(

51
(
 1.00000e-60
 1.52563e-03
 3.40505e-03
 2.76889e-03
 1.98508e-03
 1.38275e-03
 3.46292e-03
 3.40133e-03
 3.32743e-03
 3.24862e-03
 3.16584e-03
 3.07719e-03
 2.98397e-03
 2.89170e-03
 1.13307e-02
 1.10160e-02
 1.07012e-02
 1.03864e-02
 1.00716e-02
 9.75689e-03
 9.44213e-03
 9.12737e-03
 8.81262e-03
 8.49788e-03
 8.18313e-03
 7.86839e-03
 7.55364e-03
 7.23890e-03
 6.92416e-03
 6.60942e-03
 6.29468e-03
 5.97995e-03
 5.66521e-03
 5.35048e-03
 5.03574e-03
 4.72100e-03
 4.40627e-03
 4.09153e-03
 3.77680e-03
 3.46207e-03
 3.14733e-03
 2.83260e-03
 2.51786e-03
 2.20313e-03
 1.88840e-03
 1.57367e-03
 1.25893e-03
 9.44199e-04
 6.29466e-04
 3.14733e-04
 1.00000e-60
)


51
(
 1.00000e-60
 8.13410e-04
 1.38560e-03
 1.87403e-03
 2.30748e-03
 2.69802e-03
 3.05284e-03
 3.37693e-03
 3.67395e-03
 3.94664e-03
 4.19701e-03
 4.42650e-03
 4.63606e-03
 4.82626e-03
 4.99740e-03
 5.14953e-03
 5.28257e-03
 5.39634e-03
 5.49059e-03
 5.56510e-03
 5.61966e-03
 5.65411e-03
 5.66838e-03
 5.66247e-03
 5.63652e-03
 5.59072e-03
 5.52542e-03
 5.44103e-03
 5.33806e-03
 5.21714e-03
 5.07895e-03
 4.92424e-03
 4.75381e-03
 4.56852e-03
 4.36925e-03
 4.15690e-03
 3.93237e-03
 3.69655e-03
 3.45035e-03
 3.19461e-03
 2.93016e-03
 2.65781e-03
 2.37830e-03
 2.09233e-03
 1.80061e-03
 1.50377e-03
 1.20254e-03
 8.97765e-04
 5.90856e-04
 2.85405e-04
 1.00000e-60
)


51
(
 1.00000e-60
 5.55803e-04
 9.35361e-04
 1.25728e-03
 1.54531e-03
 1.80787e-03
 2.04889e-03
 2.27057e-03
 2.47432e-03
 2.66113e-03
 2.83179e-03
 2.98689e-03
 3.12698e-03
 3.25249e-03
 3.36383e-03
 3.46135e-03
 3.54537e-03
 3.61620e-03
 3.67411e-03
 3.71935e-03
 3.75217e-03
 3.77280e-03
 3.78144e-03
 3.77832e-03
 3.76362e-03
 3.73754e-03
 3.70027e-03
 3.65200e-03
 3.59289e-03
 3.52314e-03
 3.44292e-03
 3.35241e-03
 3.25178e-03
 3.14122e-03
 3.02090e-03
 2.89102e-03
 2.75174e-03
 2.60327e-03
 2.44579e-03
 2.27952e-03
 2.10465e-03
 1.92141e-03
 1.73005e-03
 1.53082e-03
 1.32406e-03
 1.11014e-03
 8.89655e-04
 6.63514e-04
 4.33603e-04
 2.05055e-04
 1.00000e-60
)


51
(
 1.00000e-60
 3.10909e-04
 5.26452e-04
 7.02106e-04
 8.54199e-04
 9.89838e-04
 1.11263e-03
 1.22463e-03
 1.32709e-03
 1.42083e-03
 1.50642e-03
 1.58427e-03
 1.65471e-03
 1.71798e-03
 1.77427e-03
 1.82375e-03
 1.86656e-03