/*--------------------------------*- C++ -*----------------------------------*\
| =========                 |                                                 |
| \      /  F ield          | OpenFOAM: The Open Source CFD Toolbox           |
|  \    /   O peration      | Version:  7                                     |
|   \  /    A nd            | Web:      http://www.OpenFOAM.com               |
|    \/     M anipulation   |                                                 |
\*---------------------------------------------------------------------------*/
FoamFile 
{   version     2.0;
    format      ascii;
    class       dictionary;
    location    "constant";
    object      LDMtable;
}
// * * * * * * * * * * * * * * * * * * * * * * * * * * * * * * * * * * * * * //

Cps_table
5
(

51
(

5
(

51
(
 1.00925e+03
 1.03337e+03
 1.05668e+03
 1.08205e+03
 1.10633e+03
 1.12958e+03
 1.15398e+03
 1.17810e+03
 1.20222e+03
 1.22634e+03
 1.25046e+03
 1.27458e+03
 1.29870e+03
 1.32282e+03
 1.34695e+03
 1.37107e+03
 1.39519e+03
 1.41931e+03
 1.44343e+03
 1.46755e+03
 1.49167e+03
 1.51579e+03
 1.53991e+03
 1.56403e+03
 1.58815e+03
 1.61227e+03
 1.63639e+03
 1.66051e+03
 1.68464e+03
 1.70876e+03
 1.73288e+03
 1.75700e+03
 1.78112e+03
 1.80524e+03
 1.82936e+03
 1.85348e+03
 1.87760e+03
 1.90172e+03
 1.92584e+03
 1.94996e+03
 1.97409e+03
 1.99821e+03
 2.02233e+03
 2.04645e+03
 2.07057e+03
 2.09469e+03
 2.11881e+03
 2.14293e+03
 2.16705e+03
 2.19117e+03
 2.21529e+03
)


51
(
 1.00925e+03
 1.03332e+03
 1.05737e+03
 1.08144e+03
 1.10552e+03
 1.12962e+03
 1.15373e+03
 1.17785e+03
 1.20198e+03
 1.22611e+03
 1.25025e+03
 1.27439e+03
 1.29852e+03
 1.32266e+03
 1.34680e+03
 1.37094e+03
 1.39508e+03
 1.41921e+03
 1.44335e+03
 1.46748e+03
 1.49161e+03
 1.51574e+03
 1.53987e+03
 1.56400e+03
 1.58813e+03
 1.61225e+03
 1.63638e+03
 1.66050e+03
 1.68462e+03
 1.70875e+03
 1.73287e+03
 1.75699e+03
 1.78111e+03
 1.80524e+03
 1.82936e+03
 1.85348e+03
 1.87760e+03
 1.90172e+03
 1.92584e+03
 1.94996e+03
 1.97408e+03
 1.99821e+03
 2.02233e+03
 2.04645e+03
 2.07057e+03
 2.09469e+03
 2.11881e+03
 2.14293e+03
 2.16705e+03
 2.19117e+03
 2.21529e+03
)


51
(
 1.00925e+03
 1.03336e+03
 1.05745e+03
 1.08155e+03
 1.10565e+03
 1.12975e+03
 1.15386e+03
 1.17797e+03
 1.20208e+03
 1.22619e+03
 1.25031e+03
 1.27443e+03
 1.29855e+03
 1.32267e+03
 1.34679e+03
 1.37091e+03
 1.39504e+03
 1.41916e+03
 1.44329e+03
 1.46742e+03
 1.49154e+03
 1.51567e+03
 1.53980e+03
 1.56392e+03
 1.58805e+03
 1.61218e+03
 1.63631e+03
 1.66043e+03
 1.68456e+03
 1.70869e+03
 1.73281e+03
 1.75694e+03
 1.78107e+03
 1.80519e+03
 1.82932e+03
 1.85344e+03
 1.87757e+03
 1.90169e+03
 1.92582e+03
 1.94994e+03
 1.97407e+03
 1.99819e+03
 2.02231e+03
 2.04644e+03
 2.07056e+03
 2.09468e+03
 2.11881e+03
 2.14293e+03
 2.16705e+03
 2.19117e+03
 2.21529e+03
)


51
(
 1.00925e+03
 1.03337e+03
 1.05748e+03
 1.08160e+03
 1.10571e+03
 1.12982e+03
 1.15394e+03
 1.17805e+03
 1.20216e+03
 1.22628e+03
 1.25040e+03
 1.27451e+03
 1.29863e+03
 1.32275e+03
 1.34687e+03
 1.37098e+03
 1.39510e+03
 1.41922e+03
 1.44334e+03
 1.46746e+03
 1.49159e+03
 1.51571e+03
 1.53983e+03
 1.56395e+03
 1.58807e+03
 1.61219e+03
 1.63632e+03
 1.66044e+03
 1.68456e+03
 1.70869e+03
 1.73281e+03
 1.75693e+03
 1.78106e+03
 1.80518e+03
 1.82931e+03
 1.85343e+03
 1.87755e+03
 1.90168e+03
 1.92580e+03
 1.94993e+03
 1.97405e+03
 1.99818e+03
 2.02230e+03
 2.04643e+03
 2.07055e+03
 2.09468e+03
 2.11880e+03
 2.14292e+03
 2.16705e+03
 2.19117e+03
 2.21529e+03
)


51
(
 1.00925e+03
 1.03337e+03
 1.05750e+03
 1.08162e+03
 1.10574e+03
 1.12986e+03
 1.15398e+03
 1.17810e+03
 1.20222e+03
 1.22634e+03
 1.25046e+03
 1.27458e+03
 1.29870e+03
 1.32282e+03
 1.34694e+03
 1.37107e+03
 1.39519e+03
 1.41931e+03
 1.44343e+03
 1.46755e+03
 1.49167e+03
 1.51579e+03
 1.53991e+03
 1.56403e+03
 1.58815e+03
 1.61227e+03
 1.63639e+03
 1.66052e+03
 1.68464e+03
 1.70876e+03
 1.73288e+03
 1.75700e+03
 1.78112e+03
 1.80524e+03
 1.82936e+03
 1.85348e+03
 1.87760e+03
 1.90172e+03
 1.92584e+03
 1.94996e+03
 1.97409e+03
 1.99821e+03
 2.02233e+03
 2.04645e+03
 2.07057e+03
 2.09469e+03
 2.11881e+03
 2.14293e+03
 2.16705e+03
 2.19117e+03
 2.21529e+03
)


)


5
(

51
(
 1.00925e+03
 1.03660e+03
 1.05689e+03
 1.08235e+03
 1.10826e+03
 1.14750e+03
 1.17653e+03
 1.20202e+03
 1.22710e+03
 1.25186e+03
 1.27638e+03
 1.30073e+03
 1.32498e+03
 1.34925e+03
 1.37632e+03
 1.40098e+03
 1.42556e+03
 1.45004e+03
 1.47443e+03
 1.49872e+03
 1.52292e+03
 1.54703e+03
 1.57104e+03
 1.59496e+03
 1.61878e+03
 1.64251e+03
 1.66614e+03
 1.68969e+03
 1.71315e+03
 1.73652e+03
 1.75981e+03
 1.78302e+03
 1.80615e+03
 1.82921e+03
 1.85220e+03
 1.87512e+03
 1.89798e+03
 1.92078e+03
 1.94353e+03
 1.96624e+03
 1.98891e+03
 2.01154e+03
 2.03416e+03
 2.05675e+03
 2.07934e+03
 2.10193e+03
 2.12454e+03
 2.14716e+03
 2.16983e+03
 2.19254e+03
 2.21529e+03
)


51
(
 1.00925e+03
 1.03537e+03
 1.06132e+03
 1.08720e+03
 1.11303e+03
 1.13880e+03
 1.16450e+03
 1.19011e+03
 1.21565e+03
 1.24110e+03
 1.26645e+03
 1.29171e+03
 1.31687e+03
 1.34192e+03
 1.36688e+03
 1.39174e+03
 1.41650e+03
 1.44116e+03
 1.46572e+03
 1.49019e+03
 1.51456e+03
 1.53884e+03
 1.56304e+03
 1.58715e+03
 1.61118e+03
 1.63513e+03
 1.65900e+03
 1.68279e+03
 1.70652e+03
 1.73017e+03
 1.75376e+03
 1.77729e+03
 1.80075e+03
 1.82416e+03
 1.84750e+03
 1.87080e+03
 1.89404e+03
 1.91723e+03
 1.94037e+03
 1.96347e+03
 1.98652e+03
 2.00953e+03
 2.03250e+03
 2.05544e+03
 2.07834e+03
 2.10120e+03
 2.12404e+03
 2.14685e+03
 2.16964e+03
 2.19242e+03
 2.21529e+03
)


51
(
 1.00925e+03
 1.03472e+03
 1.06004e+03
 1.08528e+03
 1.11047e+03
 1.13561e+03
 1.16069e+03
 1.18572e+03
 1.21069e+03
 1.23561e+03
 1.26048e+03
 1.28529e+03
 1.31006e+03
 1.33476e+03
 1.35942e+03
 1.38402e+03
 1.40857e+03
 1.43306e+03
 1.45750e+03
 1.48189e+03
 1.50623e+03
 1.53052e+03
 1.55475e+03
 1.57894e+03
 1.60307e+03
 1.62715e+03
 1.65119e+03
 1.67517e+03
 1.69911e+03
 1.72300e+03
 1.74684e+03
 1.77064e+03
 1.79439e+03
 1.81809e+03
 1.84175e+03
 1.86537e+03
 1.88895e+03
 1.91248e+03
 1.93598e+03
 1.95943e+03
 1.98284e+03
 2.00622e+03
 2.02956e+03
 2.05286e+03
 2.07613e+03
 2.09936e+03
 2.12256e+03
 2.14574e+03
 2.16889e+03
 2.19205e+03
 2.21529e+03
)


51
(
 1.00925e+03
 1.03406e+03
 1.05878e+03
 1.08346e+03
 1.10809e+03
 1.13270e+03
 1.15728e+03
 1.18184e+03
 1.20636e+03
 1.23086e+03
 1.25534e+03
 1.27979e+03
 1.30422e+03
 1.32862e+03
 1.35300e+03
 1.37735e+03
 1.40168e+03
 1.42598e+03
 1.45026e+03
 1.47451e+03
 1.49874e+03
 1.52295e+03
 1.54713e+03
 1.57129e+03
 1.59543e+03
 1.61954e+03
 1.64363e+03
 1.66769e+03
 1.69173e+03
 1.71575e+03
 1.73974e+03
 1.76372e+03
 1.78766e+03
 1.81159e+03
 1.83549e+03
 1.85937e+03
 1.88323e+03
 1.90707e+03
 1.93088e+03
 1.95468e+03
 1.97845e+03
 2.00220e+03
 2.02593e+03
 2.04964e+03
 2.07333e+03
 2.09700e+03
 2.12066e+03
 2.14431e+03
 2.16795e+03
 2.19159e+03
 2.21529e+03
)


51
(
 1.00925e+03
 1.03337e+03
 1.05750e+03
 1.08162e+03
 1.10574e+03
 1.12986e+03
 1.15398e+03
 1.17810e+03
 1.20222e+03
 1.22634e+03
 1.25046e+03
 1.27458e+03
 1.29870e+03
 1.32282e+03
 1.34694e+03
 1.37107e+03
 1.39519e+03
 1.41931e+03
 1.44343e+03
 1.46755e+03
 1.49167e+03
 1.51579e+03
 1.53991e+03
 1.56403e+03
 1.58815e+03
 1.61227e+03
 1.63639e+03
 1.66052e+03
 1.68464e+03
 1.70876e+03
 1.73288e+03
 1.75700e+03
 1.78112e+03
 1.80524e+03
 1.82936e+03
 1.85348e+03
 1.87760e+03
 1.90172e+03
 1.92584e+03
 1.94996e+03
 1.97409e+03
 1.99821e+03
 2.02233e+03
 2.04645e+03
 2.07057e+03
 2.09469e+03
 2.11881e+03
 2.14293e+03
 2.16705e+03
 2.19117e+03
 2.21529e+03
)


)


5
(

51
(
 1.00925e+03
 1.03983e+03
 1.05872e+03
 1.08516e+03
 1.11313e+03
 1.16516e+03
 1.19909e+03
 1.22594e+03
 1.25197e+03
 1.27738e+03
 1.30231e+03
 1.32687e+03
 1.35125e+03
 1.37567e+03
 1.40569e+03
 1.43090e+03
 1.45593e+03
 1.48078e+03
 1.50543e+03
 1.52990e+03
 1.55418e+03
 1.57827e+03
 1.60217e+03
 1.62588e+03
 1.64940e+03
 1.67274e+03
 1.69589e+03
 1.71886e+03
 1.74166e+03
 1.76428e+03
 1.78675e+03
 1.80904e+03
 1.83118e+03
 1.85318e+03
 1.87503e+03
 1.89675e+03
 1.91835e+03
 1.93984e+03
 1.96122e+03
 1.98251e+03
 2.00373e+03
 2.02488e+03
 2.04599e+03
 2.06706e+03
 2.08812e+03
 2.10918e+03
 2.13027e+03
 2.15140e+03
 2.17261e+03
 2.19392e+03
 2.21529e+03
)


51
(
 1.00925e+03
 1.03744e+03
 1.06532e+03
 1.09307e+03
 1.12067e+03
 1.14814e+03
 1.17544e+03
 1.20257e+03
 1.22953e+03
 1.25630e+03
 1.28287e+03
 1.30924e+03
 1.33542e+03
 1.36139e+03
 1.38716e+03
 1.41273e+03
 1.43809e+03
 1.46326e+03
 1.48824e+03
 1.51303e+03
 1.53763e+03
 1.56205e+03
 1.58630e+03
 1.61038e+03
 1.63430e+03
 1.65806e+03
 1.68167e+03
 1.70513e+03
 1.72845e+03
 1.75163e+03
 1.77468e+03
 1.79760e+03
 1.82040e+03
 1.84309e+03
 1.86566e+03
 1.88812e+03
 1.91048e+03
 1.93274e+03
 1.95490e+03
 1.97697e+03
 1.99896e+03
 2.02086e+03
 2.04268e+03
 2.06443e+03
 2.08611e+03
 2.10772e+03
 2.12927e+03
 2.15076e+03
 2.17222e+03
 2.19367e+03
 2.21529e+03
)


51
(
 1.00925e+03
 1.03609e+03
 1.06264e+03
 1.08905e+03
 1.11534e+03
 1.14152e+03
 1.16759e+03
 1.19354e+03
 1.21939e+03
 1.24512e+03
 1.27075e+03
 1.29627e+03
 1.32167e+03
 1.34697e+03
 1.37216e+03
 1.39724e+03
 1.42221e+03
 1.44708e+03
 1.47184e+03
 1.49649e+03
 1.52103e+03
 1.54548e+03
 1.56981e+03
 1.59405e+03
 1.61819e+03
 1.64222e+03
 1.66616e+03
 1.69000e+03
 1.71374e+03
 1.73738e+03
 1.76094e+03
 1.78440e+03
 1.80777e+03
 1.83105e+03
 1.85424e+03
 1.87735e+03
 1.90037e+03
 1.92331e+03
 1.94617e+03
 1.96895e+03
 1.99165e+03
 2.01427e+03
 2.03682e+03
 2.05930e+03
 2.08171e+03
 2.10405e+03
 2.12633e+03
 2.14855e+03
 2.17074e+03
 2.19293e+03
 2.21529e+03
)


51
(
 1.00925e+03
 1.03476e+03
 1.06008e+03
 1.08532e+03
 1.11049e+03
 1.13560e+03
 1.16065e+03
 1.18565e+03
 1.21059e+03
 1.23548e+03
 1.26032e+03
 1.28511e+03
 1.30985e+03
 1.33453e+03
 1.35917e+03
 1.38376e+03
 1.40830e+03
 1.43278e+03
 1.45722e+03
 1.48161e+03
 1.50595e+03
 1.53025e+03
 1.55449e+03
 1.57869e+03
 1.60283e+03
 1.62693e+03
 1.65099e+03
 1.67499e+03
 1.69895e+03
 1.72286e+03
 1.74672e+03
 1.77054e+03
 1.79431e+03
 1.81804e+03
 1.84172e+03
 1.86536e+03
 1.88895e+03
 1.91249e+03
 1.93599e+03
 1.95945e+03
 1.98287e+03
 2.00624e+03
 2.02958e+03
 2.05287e+03
 2.07612e+03
 2.09934e+03
 2.12253e+03
 2.14569e+03
 2.16885e+03
 2.19202e+03
 2.21529e+03
)


51
(
 1.00925e+03
 1.03337e+03
 1.05750e+03
 1.08162e+03
 1.10574e+03
 1.12986e+03
 1.15398e+03
 1.17810e+03
 1.20222e+03
 1.22634e+03
 1.25046e+03
 1.27458e+03
 1.29870e+03
 1.32282e+03
 1.34694e+03
 1.37107e+03
 1.39519e+03
 1.41931e+03
 1.44343e+03
 1.46755e+03
 1.49167e+03
 1.51579e+03
 1.53991e+03
 1.56403e+03
 1.58815e+03
 1.61227e+03
 1.63639e+03
 1.66052e+03
 1.68464e+03
 1.70876e+03
 1.73288e+03
 1.75700e+03
 1.78112e+03
 1.80524e+03
 1.82936e+03
 1.85348e+03
 1.87760e+03
 1.90172e+03
 1.92584e+03
 1.94996e+03
 1.97409e+03
 1.99821e+03
 2.02233e+03
 2.04645e+03
 2.07057e+03
 2.09469e+03
 2.11881e+03
 2.14293e+03
 2.16705e+03
 2.19117e+03
 2.21529e+03
)


)


5
(

51
(
 1.00925e+03
 1.04305e+03
 1.06235e+03
 1.09071e+03
 1.12073e+03
 1.18306e+03
 1.22164e+03
 1.24986e+03
 1.27685e+03
 1.30290e+03
 1.32823e+03
 1.35301e+03
 1.37752e+03
 1.40210e+03
 1.43506e+03
 1.46082e+03
 1.48631e+03
 1.51151e+03
 1.53644e+03
 1.56108e+03
 1.58544e+03
 1.60951e+03
 1.63331e+03
 1.65680e+03
 1.68003e+03
 1.70297e+03
 1.72564e+03
 1.74804e+03
 1.77017e+03
 1.79204e+03
 1.81368e+03
 1.83506e+03
 1.85621e+03
 1.87715e+03
 1.89787e+03
 1.91839e+03
 1.93872e+03
 1.95889e+03
 1.97891e+03
 1.99879e+03
 2.01855e+03
 2.03822e+03
 2.05782e+03
 2.07737e+03
 2.09689e+03
 2.11642e+03
 2.13600e+03
 2.15563e+03
 2.17539e+03
 2.19529e+03
 2.21529e+03
)


51
(
 1.00925e+03
 1.03960e+03
 1.06953e+03
 1.09922e+03
 1.12868e+03
 1.15789e+03
 1.18683e+03
 1.21550e+03
 1.24388e+03
 1.27197e+03
 1.29975e+03
 1.32722e+03
 1.35439e+03
 1.38125e+03
 1.40780e+03
 1.43404e+03
 1.45999e+03
 1.48564e+03
 1.51100e+03
 1.53608e+03
 1.56088e+03
 1.58542e+03
 1.60971e+03
 1.63374e+03
 1.65753e+03
 1.68109e+03
 1.70442e+03
 1.72753e+03
 1.75043e+03
 1.77313e+03
 1.79563e+03
 1.81795e+03
 1.84008e+03
 1.86204e+03
 1.88383e+03
 1.90546e+03
 1.92693e+03
 1.94826e+03
 1.96944e+03
 1.99049e+03
 2.01140e+03
 2.03219e+03
 2.05286e+03
 2.07342e+03
 2.09388e+03
 2.11423e+03
 2.13450e+03
 2.15468e+03
 2.17481e+03
 2.19493e+03
 2.21529e+03
)


51
(
 1.00925e+03
 1.03748e+03
 1.06531e+03
 1.09293e+03
 1.12036e+03
 1.14761e+03
 1.17469e+03
 1.20160e+03
 1.22833e+03
 1.25490e+03
 1.28129e+03
 1.30752e+03
 1.33358e+03
 1.35947e+03
 1.38519e+03
 1.41075e+03
 1.43614e+03
 1.46137e+03
 1.48644e+03
 1.51134e+03
 1.53609e+03
 1.56068e+03
 1.58511e+03
 1.60939e+03
 1.63352e+03
 1.65749e+03
 1.68132e+03
 1.70500e+03
 1.72854e+03
 1.75193e+03
 1.77518e+03
 1.79830e+03
 1.82128e+03
 1.84412e+03
 1.86684e+03
 1.88942e+03
 1.91188e+03
 1.93422e+03
 1.95643e+03
 1.97853e+03
 2.00051e+03
 2.02237e+03
 2.04412e+03
 2.06577e+03
 2.08731e+03
 2.10876e+03
 2.13011e+03
 2.15138e+03
 2.17259e+03
 2.19381e+03
 2.21529e+03
)


51
(
 1.00925e+03
 1.03546e+03
 1.06140e+03
 1.08722e+03
 1.11294e+03
 1.13856e+03
 1.16409e+03
 1.18954e+03
 1.21491e+03
 1.24020e+03
 1.26541e+03
 1.29054e+03
 1.31560e+03
 1.34058e+03
 1.36548e+03
 1.39031e+03
 1.41506e+03
 1.43973e+03
 1.46433e+03
 1.48886e+03
 1.51331e+03
 1.53769e+03
 1.56199e+03
 1.58622e+03
 1.61038e+03
 1.63447e+03
 1.65848e+03
 1.68242e+03
 1.70629e+03
 1.73009e+03
 1.75382e+03
 1.77748e+03
 1.80107e+03
 1.82459e+03
 1.84805e+03
 1.87143e+03
 1.89475e+03
 1.91800e+03
 1.94118e+03
 1.96430e+03
 1.98735e+03
 2.01034e+03
 2.03327e+03
 2.05614e+03
 2.07895e+03
 2.10171e+03
 2.12442e+03
 2.14710e+03
 2.16976e+03
 2.19245e+03
 2.21529e+03
)


51
(
 1.00925e+03
 1.03337e+03
 1.05750e+03
 1.08162e+03
 1.10574e+03
 1.12986e+03
 1.15398e+03
 1.17810e+03
 1.20222e+03
 1.22634e+03
 1.25046e+03
 1.27458e+03
 1.29870e+03
 1.32282e+03
 1.34694e+03
 1.37107e+03
 1.39519e+03
 1.41931e+03
 1.44343e+03
 1.46755e+03
 1.49167e+03
 1.51579e+03
 1.53991e+03
 1.56403e+03
 1.58815e+03
 1.61227e+03
 1.63639e+03
 1.66052e+03
 1.68464e+03
 1.70876e+03
 1.73288e+03
 1.75700e+03
 1.78112e+03
 1.80524e+03
 1.82936e+03
 1.85348e+03
 1.87760e+03
 1.90172e+03
 1.92584e+03
 1.94996e+03
 1.97409e+03
 1.99821e+03
 2.02233e+03
 2.04645e+03
 2.07057e+03
 2.09469e+03
 2.11881e+03
 2.14293e+03
 2.16705e+03
 2.19117e+03
 2.21529e+03
)


)


5
(

51
(
 1.00925e+03
 1.04628e+03
 1.06762e+03
 1.09877e+03
 1.13081e+03
 1.20112e+03
 1.24420e+03
 1.27378e+03
 1.30172e+03
 1.32842e+03
 1.35415e+03
 1.37916e+03
 1.40380e+03
 1.42852e+03
 1.46443e+03
 1.49074e+03
 1.51668e+03
 1.54225e+03
 1.56744e+03
 1.59225e+03
 1.61669e+03
 1.64076e+03
 1.66444e+03
 1.68772e+03
 1.71065e+03
 1.73320e+03
 1.75538e+03
 1.77721e+03
 1.79868e+03
 1.81980e+03
 1.84062e+03
 1.86108e+03
 1.88124e+03
 1.90112e+03
 1.92071e+03
 1.94002e+03
 1.95910e+03
 1.97795e+03
 1.99660e+03
 2.01506e+03
 2.03337e+03
 2.05156e+03
 2.06965e+03
 2.08767e+03
 2.10566e+03
 2.12367e+03
 2.14173e+03
 2.15986e+03
 2.17816e+03
 2.19666e+03
 2.21529e+03
)


51
(
 1.00925e+03
 1.04184e+03
 1.07392e+03
 1.10565e+03
 1.13702e+03
 1.16802e+03
 1.19864e+03
 1.22886e+03
 1.25867e+03
 1.28807e+03
 1.31705e+03
 1.34561e+03
 1.37374e+03
 1.40146e+03
 1.42876e+03
 1.45566e+03
 1.48215e+03
 1.50826e+03
 1.53398e+03
 1.55933e+03
 1.58431e+03
 1.60895e+03
 1.63324e+03
 1.65721e+03
 1.68086e+03
 1.70419e+03
 1.72724e+03
 1.74999e+03
 1.77246e+03
 1.79467e+03
 1.81662e+03
 1.83832e+03
 1.85978e+03
 1.88101e+03
 1.90202e+03
 1.92281e+03
 1.94340e+03
 1.96379e+03
 1.98398e+03
 2.00400e+03
 2.02385e+03
 2.04352e+03
 2.06304e+03
 2.08242e+03
 2.10165e+03
 2.12075e+03
 2.13973e+03
 2.15860e+03
 2.17739e+03
 2.19618e+03
 2.21529e+03
)


51
(
 1.00925e+03
 1.03890e+03
 1.06804e+03
 1.09690e+03
 1.12550e+03
 1.15386e+03
 1.18198e+03
 1.20986e+03
 1.23750e+03
 1.26491e+03
 1.29208e+03
 1.31903e+03
 1.34574e+03
 1.37223e+03
 1.39849e+03
 1.42452e+03
 1.45033e+03
 1.47592e+03
 1.50129e+03
 1.52644e+03
 1.55138e+03
 1.57611e+03
 1.60063e+03
 1.62494e+03
 1.64904e+03
 1.67295e+03
 1.69666e+03
 1.72017e+03
 1.74349e+03
 1.76662e+03
 1.78956e+03
 1.81232e+03
 1.83490e+03
 1.85730e+03
 1.87952e+03
 1.90158e+03
 1.92347e+03
 1.94519e+03
 1.96675e+03
 1.98816e+03
 2.00941e+03
 2.03051e+03
 2.05146e+03
 2.07227e+03
 2.09294e+03
 2.11348e+03
 2.13390e+03
 2.15421e+03
 2.17445e+03
 2.19469e+03
 2.21529e+03
)


51
(
 1.00925e+03
 1.03616e+03
 1.06274e+03
 1.08915e+03
 1.11542e+03
 1.14157e+03
 1.16759e+03
 1.19351e+03
 1.21931e+03
 1.24501e+03
 1.27060e+03
 1.29609e+03
 1.32147e+03
 1.34674e+03
 1.37191e+03
 1.39698e+03
 1.42195e+03
 1.44681e+03
 1.47158e+03
 1.49624e+03
 1.52080e+03
 1.54526e+03
 1.56963e+03
 1.59389e+03
 1.61806e+03
 1.64213e+03
 1.66610e+03
 1.68998e+03
 1.71376e+03
 1.73745e+03
 1.76104e+03
 1.78453e+03
 1.80794e+03
 1.83125e+03
 1.85446e+03
 1.87759e+03
 1.90063e+03
 1.92358e+03
 1.94644e+03
 1.96921e+03
 1.99189e+03
 2.01449e+03
 2.03701e+03
 2.05945e+03
 2.08181e+03
 2.10410e+03
 2.12633e+03
 2.14851e+03
 2.17067e+03
 2.19288e+03
 2.21529e+03
)


51
(
 1.00925e+03
 1.03337e+03
 1.05750e+03
 1.08162e+03
 1.10574e+03
 1.12986e+03
 1.15398e+03
 1.17810e+03
 1.20222e+03
 1.22634e+03
 1.25046e+03
 1.27458e+03
 1.29870e+03
 1.32282e+03
 1.34694e+03
 1.37107e+03
 1.39519e+03
 1.41931e+03
 1.44343e+03
 1.46755e+03
 1.49167e+03
 1.51579e+03
 1.53991e+03
 1.56403e+03
 1.58815e+03
 1.61227e+03
 1.63639e+03
 1.66052e+03
 1.68464e+03
 1.70876e+03
 1.73288e+03
 1.75700e+03
 1.78112e+03
 1.80524e+03
 1.82936e+03
 1.85348e+03
 1.87760e+03
 1.90172e+03
 1.92584e+03
 1.94996e+03
 1.97409e+03
 1.99821e+03
 2.02233e+03
 2.04645e+03
 2.07057e+03
 2.09469e+03
 2.11881e+03
 2.14293e+03
 2.16705e+03
 2.19117e+03
 2.21529e+03
)


)


5
(

51
(
 1.00925e+03
 1.04926e+03
 1.07438e+03
 1.10909e+03
 1.14313e+03
 1.21931e+03
 1.26675e+03
 1.29770e+03
 1.32660e+03
 1.35394e+03
 1.38007e+03
 1.40530e+03
 1.43007e+03
 1.45495e+03
 1.49380e+03
 1.52066e+03
 1.54705e+03
 1.57298e+03
 1.59844e+03
 1.62343e+03
 1.64795e+03
 1.67200e+03
 1.69557e+03
 1.71865e+03
 1.74128e+03
 1.76343e+03
 1.78513e+03
 1.80638e+03
 1.82720e+03
 1.84757e+03
 1.86755e+03
 1.88710e+03
 1.90627e+03
 1.92509e+03
 1.94355e+03
 1.96166e+03
 1.97947e+03
 1.99701e+03
 2.01429e+03
 2.03134e+03
 2.04820e+03
 2.06490e+03
 2.08148e+03
 2.09798e+03
 2.11444e+03
 2.13091e+03
 2.14746e+03
 2.16409e+03
 2.18094e+03
 2.19803e+03
 2.21529e+03
)


51
(
 1.00925e+03
 1.04409e+03
 1.07840e+03
 1.11225e+03
 1.14561e+03
 1.17846e+03
 1.21078e+03
 1.24258e+03
 1.27383e+03
 1.30454e+03
 1.33471e+03
 1.36433e+03
 1.39342e+03
 1.42198e+03
 1.45001e+03
 1.47754e+03
 1.50456e+03
 1.53109e+03
 1.55715e+03
 1.58275e+03
 1.60789e+03
 1.63261e+03
 1.65690e+03
 1.68078e+03
 1.70427e+03
 1.72738e+03
 1.75012e+03
 1.77250e+03
 1.79454e+03
 1.81625e+03
 1.83764e+03
 1.85872e+03
 1.87951e+03
 1.90000e+03
 1.92022e+03
 1.94017e+03
 1.95987e+03
 1.97932e+03
 1.99853e+03
 2.01752e+03
 2.03629e+03
 2.05486e+03
 2.07323e+03
 2.09141e+03
 2.10942e+03
 2.12726e+03
 2.14496e+03
 2.16252e+03
 2.17998e+03
 2.19743e+03
 2.21529e+03
)


51
(
 1.00925e+03
 1.04029e+03
 1.07077e+03
 1.10089e+03
 1.13070e+03
 1.16019e+03
 1.18937e+03
 1.21824e+03
 1.24681e+03
 1.27508e+03
 1.30305e+03
 1.33073e+03
 1.35810e+03
 1.38519e+03
 1.41199e+03
 1.43850e+03
 1.46473e+03
 1.49067e+03
 1.51634e+03
 1.54174e+03
 1.56687e+03
 1.59172e+03
 1.61632e+03
 1.64066e+03
 1.66474e+03
 1.68856e+03
 1.71214e+03
 1.73548e+03
 1.75857e+03
 1.78143e+03
 1.80405e+03
 1.82644e+03
 1.84861e+03
 1.87056e+03
 1.89229e+03
 1.91381e+03
 1.93512e+03
 1.95622e+03
 1.97713e+03
 1.99783e+03
 2.01835e+03
 2.03868e+03
 2.05882e+03
 2.07879e+03
 2.09858e+03
 2.11822e+03
 2.13770e+03
 2.15705e+03
 2.17631e+03
 2.19557e+03
 2.21529e+03
)


51
(
 1.00925e+03
 1.03683e+03
 1.06404e+03
 1.09104e+03
 1.11788e+03
 1.14456e+03
 1.17109e+03
 1.19748e+03
 1.22373e+03
 1.24984e+03
 1.27582e+03
 1.30166e+03
 1.32738e+03
 1.35295e+03
 1.37840e+03
 1.40372e+03
 1.42891e+03
 1.45397e+03
 1.47890e+03
 1.50370e+03
 1.52838e+03
 1.55293e+03
 1.57735e+03
 1.60165e+03
 1.62583e+03
 1.64988e+03
 1.67381e+03
 1.69762e+03
 1.72131e+03
 1.74488e+03
 1.76833e+03
 1.79166e+03
 1.81487e+03
 1.83797e+03
 1.86095e+03
 1.88382e+03
 1.90657e+03
 1.92921e+03
 1.95174e+03
 1.97416e+03
 1.99647e+03
 2.01868e+03
 2.04078e+03
 2.06279e+03
 2.08469e+03
 2.10651e+03
 2.12825e+03
 2.14993e+03
 2.17159e+03
 2.19331e+03
 2.21529e+03
)


51
(
 1.00925e+03
 1.03337e+03
 1.05750e+03
 1.08162e+03
 1.10574e+03
 1.12986e+03
 1.15398e+03
 1.17810e+03
 1.20222e+03
 1.22634e+03
 1.25046e+03
 1.27458e+03
 1.29870e+03
 1.32282e+03
 1.34694e+03
 1.37107e+03
 1.39519e+03
 1.41931e+03
 1.44343e+03
 1.46755e+03
 1.49167e+03
 1.51579e+03
 1.53991e+03
 1.56403e+03
 1.58815e+03
 1.61227e+03
 1.63639e+03
 1.66052e+03
 1.68464e+03
 1.70876e+03
 1.73288e+03
 1.75700e+03
 1.78112e+03
 1.80524e+03
 1.82936e+03
 1.85348e+03
 1.87760e+03
 1.90172e+03
 1.92584e+03
 1.94996e+03
 1.97409e+03
 1.99821e+03
 2.02233e+03
 2.04645e+03
 2.07057e+03
 2.09469e+03
 2.11881e+03
 2.14293e+03
 2.16705e+03
 2.19117e+03
 2.21529e+03
)


)


5
(

51
(
 1.00925e+03
 1.05216e+03
 1.08250e+03
 1.12146e+03
 1.15745e+03
 1.23755e+03
 1.28930e+03
 1.32162e+03
 1.35147e+03
 1.37946e+03
 1.40599e+03
 1.43145e+03
 1.45634e+03
 1.48138e+03
 1.52317e+03
 1.55057e+03
 1.57742e+03
 1.60372e+03
 1.62944e+03
 1.65460e+03
 1.67920e+03
 1.70324e+03
 1.72670e+03
 1.74957e+03
 1.77191e+03
 1.79366e+03
 1.81488e+03
 1.83556e+03
 1.85571e+03
 1.87533e+03
 1.89449e+03
 1.91312e+03
 1.93130e+03
 1.94906e+03
 1.96638e+03
 1.98329e+03
 1.99984e+03
 2.01606e+03
 2.03197e+03
 2.04761e+03
 2.06302e+03
 2.07823e+03
 2.09331e+03
 2.10829e+03
 2.12321e+03
 2.13816e+03
 2.15319e+03
 2.16833e+03
 2.18372e+03
 2.19940e+03
 2.21529e+03
)


51
(
 1.00925e+03
 1.04637e+03
 1.08300e+03
 1.11904e+03
 1.15444e+03
 1.18918e+03
 1.22324e+03
 1.25663e+03
 1.28933e+03
 1.32135e+03
 1.35270e+03
 1.38338e+03
 1.41340e+03
 1.44278e+03
 1.47153e+03
 1.49966e+03
 1.52719e+03
 1.55413e+03
 1.58050e+03
 1.60632e+03
 1.63161e+03
 1.65638e+03
 1.68065e+03
 1.70444e+03
 1.72776e+03
 1.75063e+03
 1.77305e+03
 1.79506e+03
 1.81666e+03
 1.83786e+03
 1.85869e+03
 1.87914e+03
 1.89925e+03
 1.91900e+03
 1.93843e+03
 1.95754e+03
 1.97635e+03
 1.99486e+03
 2.01309e+03
 2.03104e+03
 2.04874e+03
 2.06620e+03
 2.08341e+03
 2.10041e+03
 2.11719e+03
 2.13378e+03
 2.15019e+03
 2.16644e+03
 2.18257e+03
 2.19868e+03
 2.21529e+03
)


51
(
 1.00925e+03
 1.04167e+03
 1.07351e+03
 1.10494e+03
 1.13597e+03
 1.16662e+03
 1.19689e+03
 1.22677e+03
 1.25629e+03
 1.28543e+03
 1.31420e+03
 1.34261e+03
 1.37066e+03
 1.39835e+03
 1.42569e+03
 1.45267e+03
 1.47932e+03
 1.50562e+03
 1.53159e+03
 1.55722e+03
 1.58253e+03
 1.60751e+03
 1.63218e+03
 1.65653e+03
 1.68058e+03
 1.70432e+03
 1.72776e+03
 1.75091e+03
 1.77377e+03
 1.79635e+03
 1.81864e+03
 1.84067e+03
 1.86242e+03
 1.88391e+03
 1.90513e+03
 1.92611e+03
 1.94683e+03
 1.96731e+03
 1.98755e+03
 2.00755e+03
 2.02733e+03
 2.04688e+03
 2.06621e+03
 2.08533e+03
 2.10425e+03
 2.12297e+03
 2.14151e+03
 2.15990e+03
 2.17817e+03
 2.19645e+03
 2.21529e+03
)


51
(
 1.00925e+03
 1.03750e+03
 1.06533e+03
 1.09293e+03
 1.12034e+03
 1.14756e+03
 1.17460e+03
 1.20148e+03
 1.22818e+03
 1.25472e+03
 1.28109e+03
 1.30730e+03
 1.33335e+03
 1.35924e+03
 1.38497e+03
 1.41054e+03
 1.43595e+03
 1.46121e+03
 1.48631e+03
 1.51125e+03
 1.53604e+03
 1.56068e+03
 1.58517e+03
 1.60950e+03
 1.63369e+03
 1.65772e+03
 1.68161e+03
 1.70535e+03
 1.72895e+03
 1.75240e+03
 1.77570e+03
 1.79886e+03
 1.82188e+03
 1.84477e+03
 1.86751e+03
 1.89011e+03
 1.91257e+03
 1.93490e+03
 1.95710e+03
 1.97917e+03
 2.00110e+03
 2.02291e+03
 2.04459e+03
 2.06615e+03
 2.08760e+03
 2.10894e+03
 2.13019e+03
 2.15137e+03
 2.17252e+03
 2.19374e+03
 2.21529e+03
)


51
(
 1.00925e+03
 1.03337e+03
 1.05750e+03
 1.08162e+03
 1.10574e+03
 1.12986e+03
 1.15398e+03
 1.17810e+03
 1.20222e+03
 1.22634e+03
 1.25046e+03
 1.27458e+03
 1.29870e+03
 1.32282e+03
 1.34694e+03
 1.37107e+03
 1.39519e+03
 1.41931e+03
 1.44343e+03
 1.46755e+03
 1.49167e+03
 1.51579e+03
 1.53991e+03
 1.56403e+03
 1.58815e+03
 1.61227e+03
 1.63639e+03
 1.66052e+03
 1.68464e+03
 1.70876e+03
 1.73288e+03
 1.75700e+03
 1.78112e+03
 1.80524e+03
 1.82936e+03
 1.85348e+03
 1.87760e+03
 1.90172e+03
 1.92584e+03
 1.94996e+03
 1.97409e+03
 1.99821e+03
 2.02233e+03
 2.04645e+03
 2.07057e+03
 2.09469e+03
 2.11881e+03
 2.14293e+03
 2.16705e+03
 2.19117e+03
 2.21529e+03
)


)


5
(

51
(
 1.00925e+03
 1.05518e+03
 1.09182e+03
 1.13562e+03
 1.17353e+03
 1.25578e+03
 1.31186e+03
 1.34554e+03
 1.37635e+03
 1.40498e+03
 1.43191e+03
 1.45759e+03
 1.48262e+03
 1.50780e+03
 1.55255e+03
 1.58049e+03
 1.60780e+03
 1.63445e+03
 1.66045e+03
 1.68578e+03
 1.71046e+03
 1.73448e+03
 1.75783e+03
 1.78049e+03
 1.80253e+03
 1.82390e+03
 1.84463e+03
 1.86473e+03
 1.88422e+03
 1.90309e+03
 1.92142e+03
 1.93914e+03
 1.95633e+03
 1.97303e+03
 1.98922e+03
 2.00493e+03
 2.02022e+03
 2.03512e+03
 2.04966e+03
 2.06389e+03
 2.07784e+03
 2.09157e+03
 2.10514e+03
 2.11859e+03
 2.13199e+03
 2.14540e+03
 2.15892e+03
 2.17256e+03
 2.18650e+03
 2.20077e+03
 2.21529e+03
)


51
(
 1.00925e+03
 1.04874e+03
 1.08776e+03
 1.12605e+03
 1.16353e+03
 1.20019e+03
 1.23601e+03
 1.27099e+03
 1.30515e+03
 1.33848e+03
 1.37099e+03
 1.40272e+03
 1.43366e+03
 1.46384e+03
 1.49328e+03
 1.52199e+03
 1.55001e+03
 1.57734e+03
 1.60401e+03
 1.63004e+03
 1.65545e+03
 1.68027e+03
 1.70450e+03
 1.72818e+03
 1.75132e+03
 1.77393e+03
 1.79604e+03
 1.81766e+03
 1.83881e+03
 1.85951e+03
 1.87976e+03
 1.89959e+03
 1.91900e+03
 1.93802e+03
 1.95665e+03
 1.97492e+03
 1.99283e+03
 2.01040e+03
 2.02764e+03
 2.04457e+03
 2.06120e+03
 2.07753e+03
 2.09360e+03
 2.10940e+03
 2.12496e+03
 2.14030e+03
 2.15542e+03
 2.17035e+03
 2.18515e+03
 2.19993e+03
 2.21529e+03
)


51
(
 1.00925e+03
 1.04309e+03
 1.07633e+03
 1.10908e+03
 1.14137e+03
 1.17319e+03
 1.20456e+03
 1.23548e+03
 1.26594e+03
 1.29596e+03
 1.32555e+03
 1.35469e+03
 1.38341e+03
 1.41171e+03
 1.43958e+03
 1.46705e+03
 1.49410e+03
 1.52076e+03
 1.54702e+03
 1.57288e+03
 1.59837e+03
 1.62347e+03
 1.64820e+03
 1.67256e+03
 1.69657e+03
 1.72022e+03
 1.74351e+03
 1.76647e+03
 1.78909e+03
 1.81137e+03
 1.83334e+03
 1.85498e+03
 1.87630e+03
 1.89732e+03
 1.91804e+03
 1.93846e+03
 1.95860e+03
 1.97844e+03
 1.99801e+03
 2.01731e+03
 2.03634e+03
 2.05510e+03
 2.07362e+03
 2.09189e+03
 2.10993e+03
 2.12773e+03
 2.14533e+03
 2.16275e+03
 2.18004e+03
 2.19734e+03
 2.21529e+03
)


51
(
 1.00925e+03
 1.03818e+03
 1.06665e+03
 1.09487e+03
 1.12286e+03
 1.15063e+03
 1.17819e+03
 1.20556e+03
 1.23272e+03
 1.25969e+03
 1.28646e+03
 1.31305e+03
 1.33944e+03
 1.36563e+03
 1.39165e+03
 1.41747e+03
 1.44311e+03
 1.46856e+03
 1.49383e+03
 1.51891e+03
 1.54382e+03
 1.56854e+03
 1.59309e+03
 1.61746e+03
 1.64165e+03
 1.66567e+03
 1.68951e+03
 1.71318e+03
 1.73668e+03
 1.76000e+03
 1.78316e+03
 1.80615e+03
 1.82898e+03
 1.85164e+03
 1.87413e+03
 1.89647e+03
 1.91864e+03
 1.94065e+03
 1.96251e+03
 1.98422e+03
 2.00577e+03
 2.02717e+03
 2.04843e+03
 2.06955e+03
 2.09053e+03
 2.11139e+03
 2.13214e+03
 2.15281e+03
 2.17345e+03
 2.19418e+03
 2.21529e+03
)


51
(
 1.00925e+03
 1.03337e+03
 1.05750e+03
 1.08162e+03
 1.10574e+03
 1.12986e+03
 1.15398e+03
 1.17810e+03
 1.20222e+03
 1.22634e+03
 1.25046e+03
 1.27458e+03
 1.29870e+03
 1.32282e+03
 1.34694e+03
 1.37107e+03
 1.39519e+03
 1.41931e+03
 1.44343e+03
 1.46755e+03
 1.49167e+03
 1.51579e+03
 1.53991e+03
 1.56403e+03
 1.58815e+03
 1.61227e+03
 1.63639e+03
 1.66052e+03
 1.68464e+03
 1.70876e+03
 1.73288e+03
 1.75700e+03
 1.78112e+03
 1.80524e+03
 1.82936e+03
 1.85348e+03
 1.87760e+03
 1.90172e+03
 1.92584e+03
 1.94996e+03
 1.97409e+03
 1.99821e+03
 2.02233e+03
 2.04645e+03
 2.07057e+03
 2.09469e+03
 2.11881e+03
 2.14293e+03
 2.16705e+03
 2.19117e+03
 2.21529e+03
)


)


5
(

51
(
 1.00925e+03
 1.05835e+03
 1.10220e+03
 1.15134e+03
 1.19112e+03
 1.27395e+03
 1.33441e+03
 1.36946e+03
 1.40122e+03
 1.43050e+03
 1.45784e+03
 1.48373e+03
 1.50889e+03
 1.53423e+03
 1.58192e+03
 1.61041e+03
 1.63817e+03
 1.66518e+03
 1.69145e+03
 1.71696e+03
 1.74171e+03
 1.76572e+03
 1.78896e+03
 1.81142e+03
 1.83316e+03
 1.85413e+03
 1.87438e+03
 1.89390e+03
 1.91273e+03
 1.93085e+03
 1.94836e+03
 1.96516e+03
 1.98136e+03
 1.99700e+03
 2.01206e+03
 2.02656e+03
 2.04059e+03
 2.05418e+03
 2.06735e+03
 2.08016e+03
 2.09266e+03
 2.10491e+03
 2.11697e+03
 2.12890e+03
 2.14076e+03
 2.15265e+03
 2.16466e+03
 2.17679e+03
 2.18928e+03
 2.20215e+03
 2.21529e+03
)


51
(
 1.00925e+03
 1.05119e+03
 1.09267e+03
 1.13325e+03
 1.17286e+03
 1.21146e+03
 1.24905e+03
 1.28564e+03
 1.32124e+03
 1.35587e+03
 1.38955e+03
 1.42231e+03
 1.45415e+03
 1.48512e+03
 1.51523e+03
 1.54451e+03
 1.57299e+03
 1.60070e+03
 1.62765e+03
 1.65387e+03
 1.67940e+03
 1.70424e+03
 1.72843e+03
 1.75199e+03
 1.77493e+03
 1.79729e+03
 1.81907e+03
 1.84030e+03
 1.86099e+03
 1.88117e+03
 1.90085e+03
 1.92004e+03
 1.93877e+03
 1.95705e+03
 1.97489e+03
 1.99231e+03
 2.00932e+03
 2.02595e+03
 2.04220e+03
 2.05810e+03
 2.07365e+03
 2.08887e+03
 2.10379e+03
 2.11840e+03
 2.13274e+03
 2.14681e+03
 2.16065e+03
 2.17427e+03
 2.18774e+03
 2.20118e+03
 2.21529e+03
)


51
(
 1.00925e+03
 1.04456e+03
 1.07921e+03
 1.11332e+03
 1.14688e+03
 1.17990e+03
 1.21238e+03
 1.24433e+03
 1.27576e+03
 1.30667e+03
 1.33706e+03
 1.36695e+03
 1.39635e+03
 1.42525e+03
 1.45366e+03
 1.48160e+03
 1.50906e+03
 1.53606e+03
 1.56261e+03
 1.58870e+03
 1.61435e+03
 1.63957e+03
 1.66436e+03
 1.68873e+03
 1.71268e+03
 1.73623e+03
 1.75937e+03
 1.78213e+03
 1.80450e+03
 1.82649e+03
 1.84811e+03
 1.86936e+03
 1.89026e+03
 1.91081e+03
 1.93101e+03
 1.95087e+03
 1.97041e+03
 1.98962e+03
 2.00851e+03
 2.02709e+03
 2.04537e+03
 2.06336e+03
 2.08105e+03
 2.09847e+03
 2.11562e+03
 2.13251e+03
 2.14916e+03
 2.16561e+03
 2.18191e+03
 2.19823e+03
 2.21529e+03
)


51
(
 1.00925e+03
 1.03888e+03
 1.06801e+03
 1.09685e+03
 1.12543e+03
 1.15376e+03
 1.18186e+03
 1.20972e+03
 1.23735e+03
 1.26475e+03
 1.29193e+03
 1.31888e+03
 1.34561e+03
 1.37213e+03
 1.39842e+03
 1.42450e+03
 1.45036e+03