/*--------------------------------*- C++ -*----------------------------------*\
| =========                 |                                                 |
| \      /  F ield          | OpenFOAM: The Open Source CFD Toolbox           |
|  \    /   O peration      | Version:  7                                     |
|   \  /    A nd            | Web:      http://www.OpenFOAM.com               |
|    \/     M anipulation   |                                                 |
\*---------------------------------------------------------------------------*/
FoamFile 
{   version     2.0;
    format      ascii;
    class       dictionary;
    location    "constant";
    object      LDMtable;
}
// * * * * * * * * * * * * * * * * * * * * * * * * * * * * * * * * * * * * * //

H2O_table
5
(

51
(

5
(

51
(
 1.00000e-60
 3.02613e-30
 3.78371e-13
 6.30929e-16
 3.92750e-10
 5.02776e-07
 1.78373e-29
 2.07116e-29
 2.36053e-29
 2.65946e-29
 2.93330e-29
 3.17807e-29
 3.28314e-29
 3.36064e-29
 3.40913e-29
 3.42931e-29
 3.44689e-29
 3.45277e-29
 3.45708e-29
 3.42580e-29
 3.36537e-29
 3.30453e-29
 3.24152e-29
 3.15572e-29
 3.04791e-29
 2.93724e-29
 2.82061e-29
 2.70664e-29
 2.59423e-29
 2.47978e-29
 2.37185e-29
 2.26830e-29
 2.16040e-29
 2.04856e-29
 1.93724e-29
 1.82499e-29
 1.71002e-29
 1.59360e-29
 1.47541e-29
 1.35450e-29
 1.23296e-29
 1.11023e-29
 9.87580e-30
 8.64402e-30
 7.40989e-30
 6.17462e-30
 4.94058e-30
 3.70732e-30
 2.47470e-30
 1.24216e-30
 1.00000e-60
)


51
(
 1.00000e-60
 1.60276e-08
 3.56847e-08
 5.13509e-08
 6.26490e-08
 7.00700e-08
 7.42513e-08
 7.58163e-08
 7.53282e-08
 7.32773e-08
 7.00805e-08
 6.60856e-08
 6.15773e-08
 5.67848e-08
 5.18887e-08
 4.70283e-08
 4.23077e-08
 3.78019e-08
 3.35624e-08
 2.96211e-08
 2.59949e-08
 2.26891e-08
 1.96998e-08
 1.70166e-08
 1.46244e-08
 1.25053e-08
 1.06393e-08
 9.00539e-09
 7.58272e-09
 6.35063e-09
 5.28926e-09
 4.37982e-09
 3.60472e-09
 2.94772e-09
 2.39393e-09
 1.92981e-09
 1.54319e-09
 1.22315e-09
 9.59990e-10
 7.45140e-10
 5.71075e-10
 4.31223e-10
 3.19887e-10
 2.32154e-10
 1.63818e-10
 1.11302e-10
 7.15935e-11
 4.21868e-11
 2.10604e-11
 6.79052e-12
 1.00000e-60
)


51
(
 1.00000e-60
 4.92050e-09
 1.22817e-08
 1.93446e-08
 2.56223e-08
 3.10174e-08
 3.55418e-08
 3.92452e-08
 4.21909e-08
 4.44464e-08
 4.60789e-08
 4.71534e-08
 4.77317e-08
 4.78719e-08
 4.76281e-08
 4.70507e-08
 4.61859e-08
 4.50763e-08
 4.37610e-08
 4.22753e-08
 4.06517e-08
 3.89191e-08
 3.71039e-08
 3.52296e-08
 3.33171e-08
 3.13850e-08
 2.94497e-08
 2.75257e-08
 2.56253e-08
 2.37593e-08
 2.19370e-08
 2.01660e-08
 1.84527e-08
 1.68024e-08
 1.52193e-08
 1.37063e-08
 1.22660e-08
 1.08998e-08
 9.60852e-09
 8.39250e-09
 7.25147e-09
 6.18479e-09
 5.19147e-09
 4.27034e-09
 3.42011e-09
 2.63969e-09
 1.92857e-09
 1.28787e-09
 7.23258e-10
 2.56325e-10
 1.00000e-60
)


51
(
 1.00000e-60
 1.14799e-09
 3.28884e-09
 5.67577e-09
 8.06278e-09
 1.03495e-08
 1.24906e-08
 1.44652e-08
 1.62648e-08
 1.78871e-08
 1.93339e-08
 2.06089e-08
 2.17172e-08
 2.26647e-08
 2.34577e-08
 2.41031e-08
 2.46073e-08
 2.49774e-08
 2.52199e-08
 2.53415e-08
 2.53488e-08
 2.52481e-08
 2.50458e-08
 2.47479e-08
 2.43603e-08
 2.38889e-08
 2.33391e-08
 2.27164e-08
 2.20261e-08
 2.12732e-08
 2.04626e-08
 1.95992e-08
 1.86875e-08
 1.77320e-08
 1.67370e-08
 1.57068e-08
 1.46456e-08
 1.35573e-08
 1.24461e-08
 1.13159e-08
 1.01710e-08
 9.01556e-09
 7.85433e-09
 6.69262e-09
 5.53688e-09
 4.39555e-09
 3.28090e-09
 2.21283e-09
 1.22852e-09
 4.10862e-10
 1.00000e-60
)


51
(
 1.00000e-60
 1.00000e-60
 1.00000e-60
 1.00000e-60
 1.00000e-60
 1.00000e-60
 1.00000e-60
 1.00000e-60
 1.00000e-60
 1.00000e-60
 1.00000e-60
 1.00000e-60
 1.00000e-60
 1.00000e-60
 1.00000e-60
 1.00000e-60
 1.00000e-60
 1.00000e-60
 1.00000e-60
 1.00000e-60
 1.00000e-60
 1.00000e-60
 1.00000e-60
 1.00000e-60
 1.00000e-60
 1.00000e-60
 1.00000e-60
 1.00000e-60
 1.00000e-60
 1.00000e-60
 1.00000e-60
 1.00000e-60
 1.00000e-60
 1.00000e-60
 1.00000e-60
 1.00000e-60
 1.00000e-60
 1.00000e-60
 1.00000e-60
 1.00000e-60
 1.00000e-60
 1.00000e-60
 1.00000e-60
 1.00000e-60
 1.00000e-60
 1.00000e-60
 1.00000e-60
 1.00000e-60
 1.00000e-60
 1.00000e-60
 1.00000e-60
)


)


5
(

51
(
 1.00000e-60
 1.02527e-03
 3.94198e-05
 4.95181e-05
 5.09260e-05
 5.06644e-04
 3.09831e-03
 3.04326e-03
 2.97739e-03
 2.90787e-03
 2.83675e-03
 2.76407e-03
 2.69017e-03
 2.61648e-03
 2.55980e-03
 2.48869e-03
 2.41759e-03
 2.34648e-03
 2.27538e-03
 2.20427e-03
 2.13317e-03
 2.06206e-03
 1.99095e-03
 1.91985e-03
 1.84874e-03
 1.77764e-03
 1.70653e-03
 1.63543e-03
 1.56432e-03
 1.49322e-03
 1.42211e-03
 1.35101e-03
 1.27990e-03
 1.20879e-03
 1.13769e-03
 1.06658e-03
 9.95478e-04
 9.24373e-04
 8.53267e-04
 7.82162e-04
 7.11056e-04
 6.39950e-04
 5.68845e-04
 4.97739e-04
 4.26634e-04
 3.55528e-04
 2.84422e-04
 2.13317e-04
 1.42211e-04
 7.11056e-05
 1.00000e-60
)


51
(
 1.00000e-60
 4.26484e-04
 6.44106e-04
 8.12885e-04
 9.57675e-04
 1.08604e-03
 1.20104e-03
 1.30412e-03
 1.39609e-03
 1.47744e-03
 1.54849e-03
 1.60956e-03
 1.66090e-03
 1.70281e-03
 1.73560e-03
 1.75960e-03
 1.77518e-03
 1.78275e-03
 1.78272e-03
 1.77555e-03
 1.76167e-03
 1.74156e-03
 1.71569e-03
 1.68452e-03
 1.64849e-03
 1.60806e-03
 1.56363e-03
 1.51563e-03
 1.46441e-03
 1.41035e-03
 1.35376e-03
 1.29495e-03
 1.23421e-03
 1.17177e-03
 1.10786e-03
 1.04268e-03
 9.76419e-04
 9.09219e-04
 8.41216e-04
 7.72525e-04
 7.03244e-04
 6.33452e-04
 5.63219e-04
 4.92599e-04
 4.21642e-04
 3.50398e-04
 2.78927e-04
 2.07336e-04
 1.35866e-04
 6.52889e-05
 1.00000e-60
)


51
(
 1.00000e-60
 3.11464e-04
 4.67342e-04
 5.80013e-04
 6.72064e-04
 7.51232e-04
 8.20922e-04
 8.82892e-04
 9.38164e-04
 9.87392e-04
 1.03103e-03
 1.06940e-03
 1.10278e-03
 1.13137e-03
 1.15537e-03
 1.17494e-03
 1.19022e-03
 1.20136e-03
 1.20850e-03
 1.21175e-03
 1.21124e-03
 1.20709e-03
 1.19943e-03
 1.18835e-03
 1.17398e-03
 1.15643e-03
 1.13580e-03
 1.11221e-03
 1.08577e-03
 1.05656e-03
 1.02472e-03
 9.90321e-04
 9.53479e-04
 9.14291e-04
 8.72852e-04
 8.29260e-04
 7.83608e-04
 7.35989e-04
 6.86494e-04
 6.35214e-04
 5.82240e-04
 5.27663e-04
 4.71579e-04
 4.14087e-04
 3.55300e-04
 2.95355e-04
 2.34438e-04
 1.72852e-04
 1.11203e-04
 5.11482e-05
 1.00000e-60
)


51
(
 1.00000e-60
 1.88962e-04
 2.95721e-04
 3.69943e-04
 4.26787e-04
 4.72828e-04
 5.11385e-04
 5.44320e-04
 5.72760e-04
 5.97434e-04
 6.18833e-04
 6.37305e-04
 6.53104e-04
 6.66421e-04
 6.77407e-04
 6.86179e-04
 6.92835e-04
 6.97454e-04
 7.00106e-04
 7.00849e-04
 6.99736e-04
 6.96813e-04
 6.92122e-04
 6.85703e-04
 6.77591e-04
 6.67820e-04
 6.56421e-04
 6.43425e-04
 6.28862e-04
 6.12760e-04
 5.95146e-04
 5.76048e-04
 5.55492e-04
 5.33507e-04
 5.10119e-04
 4.85357e-04
 4.59248e-04
 4.31824e-04
 4.03117e-04
 3.73164e-04
 3.42003e-04
 3.09683e-04
 2.76262e-04
 2.41813e-04
 2.06438e-04
 1.70284e-04
 1.33583e-04
 9.67318e-05
 6.05046e-05
 2.66608e-05
 1.00000e-60
)


51
(
 1.00000e-60
 1.00000e-60
 1.00000e-60
 1.00000e-60
 1.00000e-60
 1.00000e-60
 1.00000e-60
 1.00000e-60
 1.00000e-60
 1.00000e-60
 1.00000e-60
 1.00000e-60
 1.00000e-60
 1.00000e-60
 1.00000e-60
 1.00000e-60
 1.00000e-60
 1.00000e-60
 1.00000e-60
 1.00000e-60
 1.00000e-60
 1.00000e-60
 1.00000e-60
 1.00000e-60
 1.00000e-60
 1.00000e-60
 1.00000e-60
 1.00000e-60
 1.00000e-60
 1.00000e-60
 1.00000e-60
 1.00000e-60
 1.00000e-60
 1.00000e-60
 1.00000e-60
 1.00000e-60
 1.00000e-60
 1.00000e-60
 1.00000e-60
 1.00000e-60
 1.00000e-60
 1.00000e-60
 1.00000e-60
 1.00000e-60
 1.00000e-60
 1.00000e-60
 1.00000e-60
 1.00000e-60
 1.00000e-60
 1.00000e-60
 1.00000e-60
)


)


5
(

51
(
 1.00000e-60
 2.05053e-03
 4.04533e-04
 5.08752e-04
 5.02289e-04
 1.38508e-03
 6.19663e-03
 6.08651e-03
 5.95477e-03
 5.81575e-03
 5.67350e-03
 5.52815e-03
 5.38034e-03
 5.23297e-03
 5.11960e-03
 4.97739e-03
 4.83518e-03
 4.69297e-03
 4.55076e-03
 4.40854e-03
 4.26633e-03
 4.12412e-03
 3.98191e-03
 3.83970e-03
 3.69749e-03
 3.55528e-03
 3.41306e-03
 3.27085e-03
 3.12864e-03
 2.98643e-03
 2.84422e-03
 2.70201e-03
 2.55980e-03
 2.41759e-03
 2.27538e-03
 2.13317e-03
 1.99096e-03
 1.84875e-03
 1.70653e-03
 1.56432e-03
 1.42211e-03
 1.27990e-03
 1.13769e-03
 9.95478e-04
 8.53267e-04
 7.11056e-04
 5.68845e-04
 4.26634e-04
 2.84422e-04
 1.42211e-04
 1.00000e-60
)


51
(
 1.00000e-60
 8.49542e-04
 1.28216e-03
 1.61941e-03
 1.91051e-03
 2.17000e-03
 2.40347e-03
 2.61341e-03
 2.80107e-03
 2.96720e-03
 3.11233e-03
 3.23694e-03
 3.34153e-03
 3.42668e-03
 3.49302e-03
 3.54130e-03
 3.57230e-03
 3.58689e-03
 3.58599e-03
 3.57055e-03
 3.54154e-03
 3.49995e-03
 3.44677e-03
 3.38297e-03
 3.30948e-03
 3.22722e-03
 3.13705e-03
 3.03979e-03
 2.93621e-03
 2.82704e-03
 2.71292e-03
 2.59447e-03
 2.47223e-03
 2.34670e-03
 2.21832e-03
 2.08749e-03
 1.95455e-03
 1.81980e-03
 1.68351e-03
 1.54589e-03
 1.40713e-03
 1.26739e-03
 1.12680e-03
 9.85460e-04
 8.43469e-04
 7.00921e-04
 5.57935e-04
 4.14719e-04
 2.71755e-04
 1.30585e-04
 1.00000e-60
)


51
(
 1.00000e-60
 6.22074e-04
 9.32739e-04
 1.15726e-03
 1.34085e-03
 1.49897e-03
 1.63839e-03
 1.76259e-03
 1.87355e-03
 1.97257e-03
 2.06049e-03
 2.13796e-03
 2.20547e-03
 2.26344e-03
 2.31220e-03
 2.35209e-03
 2.38337e-03
 2.40633e-03
 2.42122e-03
 2.42828e-03
 2.42776e-03
 2.41989e-03
 2.40491e-03
 2.38304e-03
 2.35451e-03
 2.31956e-03
 2.27839e-03
 2.23123e-03
 2.17829e-03
 2.11980e-03
 2.05596e-03
 1.98698e-03
 1.91307e-03
 1.83442e-03
 1.75125e-03
 1.66374e-03
 1.57209e-03
 1.47649e-03
 1.37712e-03
 1.27417e-03
 1.16783e-03
 1.05829e-03
 9.45726e-04
 8.30354e-04
 7.12400e-04
 5.92140e-04
 4.69952e-04
 3.46442e-04
 2.22831e-04
 1.02451e-04
 1.00000e-60
)


51
(
 1.00000e-60
 3.77741e-04
 5.90933e-04
 7.39037e-04
 8.52409e-04
 9.44213e-04
 1.02109e-03
 1.08677e-03
 1.14350e-03
 1.19274e-03
 1.23546e-03
 1.27237e-03
 1.30396e-03
 1.33061e-03
 1.35263e-03
 1.37024e-03
 1.38363e-03
 1.39297e-03
 1.39839e-03
 1.40000e-03
 1.39790e-03
 1.39220e-03
 1.38296e-03
 1.37027e-03
 1.35419e-03
 1.33479e-03
 1.31214e-03
 1.28629e-03
 1.25730e-03
 1.22522e-03
 1.19011e-03
 1.15203e-03
 1.11102e-03
 1.06715e-03
 1.02045e-03
 9.71001e-04
 9.18844e-04
 8.64044e-04
 8.06666e-04
 7.46781e-04
 6.84469e-04
 6.19826e-04
 5.52967e-04
 4.84041e-04
 4.13250e-04
 3.40889e-04
 2.67423e-04
 1.93649e-04
 1.21119e-04
 5.33606e-05
 1.00000e-60
)


51
(
 1.00000e-60
 1.00000e-60
 1.00000e-60
 1.00000e-60
 1.00000e-60
 1.00000e-60
 1.00000e-60
 1.00000e-60
 1.00000e-60
 1.00000e-60
 1.00000e-60
 1.00000e-60
 1.00000e-60
 1.00000e-60
 1.00000e-60
 1.00000e-60
 1.00000e-60
 1.00000e-60
 1.00000e-60
 1.00000e-60
 1.00000e-60
 1.00000e-60
 1.00000e-60
 1.00000e-60
 1.00000e-60
 1.00000e-60
 1.00000e-60
 1.00000e-60
 1.00000e-60
 1.00000e-60
 1.00000e-60
 1.00000e-60
 1.00000e-60
 1.00000e-60
 1.00000e-60
 1.00000e-60
 1.00000e-60
 1.00000e-60
 1.00000e-60
 1.00000e-60
 1.00000e-60
 1.00000e-60
 1.00000e-60
 1.00000e-60
 1.00000e-60
 1.00000e-60
 1.00000e-60
 1.00000e-60
 1.00000e-60
 1.00000e-60
 1.00000e-60
)


)


5
(

51
(
 1.00000e-60
 3.07580e-03
 1.13004e-03
 1.42255e-03
 1.39728e-03
 2.53778e-03
 9.29494e-03
 9.12977e-03
 8.93216e-03
 8.72362e-03
 8.51025e-03
 8.29222e-03
 8.07052e-03
 7.84945e-03
 7.67939e-03
 7.46608e-03
 7.25277e-03
 7.03945e-03
 6.82613e-03
 6.61281e-03
 6.39950e-03
 6.18618e-03
 5.97286e-03
 5.75955e-03
 5.54623e-03
 5.33291e-03
 5.11960e-03
 4.90628e-03
 4.69296e-03
 4.47965e-03
 4.26633e-03
 4.05302e-03
 3.83970e-03
 3.62638e-03
 3.41307e-03
 3.19975e-03
 2.98643e-03
 2.77312e-03
 2.55980e-03
 2.34648e-03
 2.13317e-03
 1.91985e-03
 1.70653e-03
 1.49322e-03
 1.27990e-03
 1.06658e-03
 8.53267e-04
 6.39951e-04
 4.26634e-04
 2.13317e-04
 1.00000e-60
)


51
(
 1.00000e-60
 1.28917e-03
 1.95805e-03
 2.48171e-03
 2.93303e-03
 3.33372e-03
 3.69233e-03
 4.01287e-03
 4.29753e-03
 4.54774e-03
 4.76463e-03
 4.94924e-03
 5.10263e-03
 5.22593e-03
 5.32036e-03
 5.38722e-03
 5.42790e-03
 5.44387e-03
 5.43662e-03
 5.40771e-03
 5.35868e-03
 5.29107e-03
 5.20641e-03
 5.10617e-03
 4.99178e-03
 4.86462e-03
 4.72598e-03
 4.57707e-03
 4.41904e-03
 4.25292e-03
 4.07971e-03
 3.90026e-03
 3.71538e-03
 3.52580e-03
 3.33214e-03
 3.13498e-03
 2.93480e-03
 2.73205e-03
 2.52710e-03
 2.32025e-03
 2.11177e-03
 1.90189e-03
 1.69079e-03
 1.47861e-03
 1.26550e-03
 1.05158e-03
 8.37029e-04
 6.22152e-04
 4.07668e-04
 1.95889e-04
 1.00000e-60
)


51
(
 1.00000e-60
 9.37845e-04
 1.41112e-03
 1.75511e-03
 2.03716e-03
 2.28030e-03
 2.49466e-03
 2.68545e-03
 2.85571e-03
 3.00738e-03
 3.14180e-03
 3.25997e-03
 3.36268e-03
 3.45057e-03
 3.52423e-03
 3.58415e-03
 3.63081e-03
 3.66465e-03
 3.68608e-03
 3.69552e-03
 3.69336e-03
 3.67999e-03
 3.65578e-03
 3.62110e-03
 3.57632e-03
 3.52180e-03
 3.45790e-03
 3.38496e-03
 3.30332e-03
 3.21334e-03
 3.11534e-03
 3.00964e-03
 2.89657e-03
 2.77645e-03
 2.64957e-03
 2.51626e-03
 2.37679e-03
 2.23146e-03
 2.08057e-03
 1.92438e-03
 1.76319e-03
 1.59727e-03
 1.42692e-03
 1.25244e-03
 1.07418e-03
 8.92547e-04
 7.08120e-04
 5.21810e-04
 3.35461e-04
 1.54110e-04
 1.00000e-60
)


51
(
 1.00000e-60
 5.67728e-04
 8.89620e-04
 1.11414e-03
 1.28659e-03
 1.42662e-03
 1.54413e-03
 1.64470e-03
 1.73170e-03
 1.80729e-03
 1.87295e-03
 1.92972e-03
 1.97836e-03
 2.01945e-03
 2.05342e-03
 2.08064e-03
 2.10139e-03
 2.11593e-03
 2.12445e-03
 2.12713e-03
 2.12413e-03
 2.11560e-03
 2.10166e-03
 2.08244e-03
 2.05803e-03
 2.02855e-03
 1.99409e-03
 1.95475e-03
 1.91061e-03
 1.86177e-03
 1.80831e-03
 1.75031e-03
 1.68787e-03
 1.62106e-03
 1.54997e-03
 1.47469e-03
 1.39530e-03
 1.31191e-03
 1.22461e-03
 1.13352e-03
 1.03876e-03
 9.40474e-04
 8.38845e-04
 7.34103e-04
 6.26558e-04
 5.16663e-04
 4.05130e-04
 2.93181e-04
 1.83188e-04
 8.05480e-05
 1.00000e-60
)


51
(
 1.00000e-60
 1.00000e-60
 1.00000e-60
 1.00000e-60
 1.00000e-60
 1.00000e-60
 1.00000e-60
 1.00000e-60
 1.00000e-60
 1.00000e-60
 1.00000e-60
 1.00000e-60
 1.00000e-60
 1.00000e-60
 1.00000e-60
 1.00000e-60
 1.00000e-60
 1.00000e-60
 1.00000e-60
 1.00000e-60
 1.00000e-60
 1.00000e-60
 1.00000e-60
 1.00000e-60
 1.00000e-60
 1.00000e-60
 1.00000e-60
 1.00000e-60
 1.00000e-60
 1.00000e-60
 1.00000e-60
 1.00000e-60
 1.00000e-60
 1.00000e-60
 1.00000e-60
 1.00000e-60
 1.00000e-60
 1.00000e-60
 1.00000e-60
 1.00000e-60
 1.00000e-60
 1.00000e-60
 1.00000e-60
 1.00000e-60
 1.00000e-60
 1.00000e-60
 1.00000e-60
 1.00000e-60
 1.00000e-60
 1.00000e-60
 1.00000e-60
)


)


5
(

51
(
 1.00000e-60
 4.10107e-03
 2.18850e-03
 2.75775e-03
 2.70389e-03
 3.94686e-03
 1.23933e-02
 1.21730e-02
 1.19095e-02
 1.16315e-02
 1.13470e-02
 1.10563e-02
 1.07607e-02
 1.04659e-02
 1.02392e-02
 9.95478e-03
 9.67036e-03
 9.38593e-03
 9.10151e-03
 8.81709e-03
 8.53266e-03
 8.24824e-03
 7.96382e-03
 7.67939e-03
 7.39497e-03
 7.11055e-03
 6.82613e-03
 6.54171e-03
 6.25729e-03
 5.97286e-03
 5.68844e-03
 5.40402e-03
 5.11960e-03
 4.83518e-03
 4.55076e-03
 4.26633e-03
 3.98191e-03
 3.69749e-03
 3.41307e-03
 3.12865e-03
 2.84422e-03
 2.55980e-03
 2.27538e-03
 1.99096e-03
 1.70653e-03
 1.42211e-03
 1.13769e-03
 8.53267e-04
 5.68845e-04
 2.84422e-04
 1.00000e-60
)


51
(
 1.00000e-60
 1.74415e-03
 2.66898e-03
 3.39568e-03
 4.02010e-03
 4.57134e-03
 5.06129e-03
 5.49590e-03
 5.87877e-03
 6.21241e-03
 6.49894e-03
 6.74029e-03
 6.93836e-03
 7.09510e-03
 7.21252e-03
 7.29269e-03
 7.33774e-03
 7.34985e-03
 7.33120e-03
 7.28399e-03
 7.21040e-03
 7.11255e-03
 6.99253e-03
 6.85233e-03
 6.69387e-03
 6.51896e-03
 6.32932e-03
 6.12653e-03
 5.91209e-03
 5.68735e-03
 5.45357e-03
 5.21188e-03
 4.96331e-03
 4.70877e-03
 4.44908e-03
 4.18496e-03
 3.91703e-03
 3.64585e-03
 3.37188e-03
 3.09553e-03
 2.81711e-03
 2.53691e-03
 2.25516e-03
 1.97204e-03
 1.68772e-03
 1.40237e-03
 1.11620e-03
 8.29633e-04
 5.43605e-04
 2.61201e-04
 1.00000e-60
)


51
(
 1.00000e-60
 1.25840e-03
 1.90153e-03
 2.37207e-03
 2.75897e-03
 3.09275e-03
 3.38685e-03
 3.64830e-03
 3.88119e-03
 4.08819e-03
 4.27116e-03
 4.43152e-03
 4.57040e-03
 4.68875e-03
 4.78740e-03
 4.86710e-03
 4.92855e-03
 4.97240e-03
 4.99927e-03
 5.00977e-03
 5.00447e-03
 4.98393e-03
 4.94872e-03
 4.89936e-03
 4.83638e-03
 4.76030e-03
 4.67163e-03
 4.57086e-03
 4.45849e-03
 4.33498e-03
 4.20080e-03
 4.05641e-03
 3.90226e-03
 3.73877e-03
 3.56638e-03
 3.38550e-03
 3.19653e-03
 2.99987e-03
 2.79590e-03
 2.58502e-03
 2.36759e-03
 2.14400e-03
 1.91464e-03
 1.67991e-03
 1.44029e-03
 1.19631e-03
 9.48750e-04
 6.98828e-04
 4.49020e-04
 2.06099e-04
 1.00000e-60
)


51
(
 1.00000e-60
 7.58837e-04
 1.19152e-03
 1.49482e-03
 1.72871e-03
 1.91923e-03
 2.07953e-03
 2.21698e-03
 2.33606e-03
 2.43967e-03
 2.52976e-03
 2.60773e-03
 2.67459e-03
 2.73111e-03
 2.77791e-03
 2.81545e-03
 2.84414e-03
 2.86431e-03
 2.87624e-03
 2.88019e-03
 2.87636e-03
 2.86497e-03
 2.84619e-03
 2.82018e-03
 2.78711e-03
 2.74712e-03
 2.70034e-03
 2.64692e-03
 2.58697e-03
 2.52063e-03
 2.44802e-03
 2.36926e-03
 2.28446e-03
 2.19376e-03
 2.09726e-03
 1.99510e-03
 1.88739e-03
 1.77428e-03
 1.65591e-03
 1.53242e-03
 1.40400e-03
 1.27086e-03
 1.13322e-03
 9.91425e-04
 8.45886e-04
 6.97228e-04
 5.46421e-04
 3.95135e-04
 2.46605e-04
 1.08187e-04
 1.00000e-60
)


51
(
 1.00000e-60
 1.00000e-60
 1.00000e-60
 1.00000e-60
 1.00000e-60
 1.00000e-60
 1.00000e-60
 1.00000e-60
 1.00000e-60
 1.00000e-60
 1.00000e-60
 1.00000e-60
 1.00000e-60
 1.00000e-60
 1.00000e-60
 1.00000e-60
 1.00000e-60
 1.00000e-60
 1.00000e-60
 1.00000e-60
 1.00000e-60
 1.00000e-60
 1.00000e-60
 1.00000e-60
 1.00000e-60
 1.00000e-60
 1.00000e-60
 1.00000e-60
 1.00000e-60
 1.00000e-60
 1.00000e-60
 1.00000e-60
 1.00000e-60
 1.00000e-60
 1.00000e-60
 1.00000e-60
 1.00000e-60
 1.00000e-60
 1.00000e-60
 1.00000e-60
 1.00000e-60
 1.00000e-60
 1.00000e-60
 1.00000e-60
 1.00000e-60
 1.00000e-60
 1.00000e-60
 1.00000e-60
 1.00000e-60
 1.00000e-60
 1.00000e-60
)


)


5
(

51
(
 1.00000e-60
 4.98590e-03
 3.55246e-03
 4.48117e-03
 4.39008e-03
 5.59439e-03
 1.54916e-02
 1.52163e-02
 1.48869e-02
 1.45394e-02
 1.41837e-02
 1.38204e-02
 1.34509e-02
 1.30824e-02
 1.27990e-02
 1.24435e-02
 1.20879e-02
 1.17324e-02
 1.13769e-02
 1.10214e-02
 1.06658e-02
 1.03103e-02
 9.95477e-03
 9.59924e-03
 9.24372e-03
 8.88819e-03
 8.53266e-03
 8.17713e-03
 7.82161e-03
 7.46608e-03
 7.11055e-03
 6.75503e-03
 6.39950e-03
 6.04397e-03
 5.68844e-03
 5.33292e-03
 4.97739e-03
 4.62186e-03
 4.26634e-03
 3.91081e-03
 3.55528e-03
 3.19975e-03
 2.84422e-03
 2.48870e-03
 2.13317e-03
 1.77764e-03
 1.42211e-03
 1.06658e-03
 7.11056e-04
 3.55528e-04
 1.00000e-60
)


51
(
 1.00000e-60
 2.17339e-03
 3.36952e-03
 4.31794e-03
 5.13216e-03
 5.84748e-03
 6.47904e-03
 7.03504e-03
 7.52078e-03
 7.94032e-03
 8.29712e-03
 8.59436e-03
 8.83514e-03
 9.02248e-03
 9.15945e-03
 9.24908e-03
 9.29443e-03
 9.29851e-03
 9.26432e-03
 9.19480e-03
 9.09280e-03
 8.96111e-03
 8.80237e-03
 8.61913e-03
 8.41378e-03
 8.18861e-03
 7.94571e-03
 7.68705e-03
 7.41445e-03
 7.12956e-03
 6.83390e-03
 6.52884e-03
 6.21560e-03
 5.89529e-03
 5.56887e-03
 5.23722e-03
 4.90107e-03
 4.56107e-03
 4.21777e-03
 3.87165e-03
 3.52309e-03
 3.17241e-03
 2.81988e-03
 2.46572e-03
 2.11012e-03
 1.75327e-03
 1.39545e-03
 1.03716e-03
 6.79563e-04
 3.26519e-04
 1.00000e-60
)


51
(
 1.00000e-60
 1.54879e-03
 2.36044e-03
 2.96250e-03
 3.46102e-03
 3.89252e-03
 4.27321e-03
 4.61164e-03
 4.91286e-03
 5.18022e-03
 5.41613e-03
 5.62243e-03
 5.80063e-03
 5.95201e-03
 6.07772e-03
 6.17879e-03
 6.25619e-03
 6.31083e-03
 6.34356e-03
 6.35522e-03
 6.34661e-03
 6.31851e-03
 6.27168e-03
 6.20684e-03
 6.12472e-03
 6.02602e-03
 5.91141e-03
 5.78156e-03
 5.63712e-03
 5.47873e-03
 5.30699e-03
 5.12251e-03
 4.92586e-03
 4.71762e-03
 4.49833e-03
 4.26853e-03
 4.02874e-03
 3.77947e-03
 3.52121e-03
 3.25445e-03
 2.97966e-03
 2.69732e-03
 2.40794e-03
 2.11201e-03
 1.81012e-03
 1.50297e-03
 1.19151e-03
 8.77277e-04
 5.63388e-04
 2.58377e-04
 1.00000e-60
)


51
(
 1.00000e-60
 9.27297e-04
 1.46262e-03
 1.84193e-03
 2.13708e-03
 2.37928e-03
 2.58428e-03
 2.76093e-03
 2.91464e-03
 3.04888e-03
 3.16603e-03
 3.26776e-03
 3.35533e-03
 3.42969e-03
 3.49157e-03
 3.54157e-03
 3.58019e-03
 3.60786e-03
 3.62493e-03
 3.63172e-03
 3.62851e-03
 3.61556e-03
 3.59311e-03
 3.56137e-03
 3.52055e-03
 3.47084e-03
 3.41243e-03
 3.34549e-03
 3.27020e-03
 3.18672e-03
 3.09521e-03
 2.99585e-03
 2.88878e-03
 2.77418e-03
 2.65219e-03
 2.52298e-03
 2.38673e-03
 2.24360e-03
 2.09379e-03
 1.93750e-03
 1.77496e-03
 1.60644e-03
 1.43224e-03
 1.25279e-03
 1.06864e-03
 8.80564e-04
 6.89821e-04
 4.98539e-04
 3.10841e-04
 1.36105e-04
 1.00000e-60
)


51
(
 1.00000e-60
 1.00000e-60
 1.00000e-60
 1.00000e-60
 1.00000e-60
 1.00000e-60
 1.00000e-60
 1.00000e-60
 1.00000e-60
 1.00000e-60
 1.00000e-60
 1.00000e-60
 1.00000e-60
 1.00000e-60
 1.00000e-60
 1.00000e-60
 1.00000e-60
 1.00000e-60
 1.00000e-60
 1.00000e-60
 1.00000e-60
 1.00000e-60
 1.00000e-60
 1.00000e-60
 1.00000e-60
 1.00000e-60
 1.00000e-60
 1.00000e-60
 1.00000e-60
 1.00000e-60
 1.00000e-60
 1.00000e-60
 1.00000e-60
 1.00000e-60
 1.00000e-60
 1.00000e-60
 1.00000e-60
 1.00000e-60
 1.00000e-60
 1.00000e-60
 1.00000e-60
 1.00000e-60
 1.00000e-60
 1.00000e-60
 1.00000e-60
 1.00000e-60
 1.00000e-60
 1.00000e-60
 1.00000e-60
 1.00000e-60
 1.00000e-60
)


)


5
(

51
(
 1.00000e-60
 5.78716e-03
 5.19449e-03
 6.55964e-03
 6.42385e-03
 7.46248e-03
 1.85899e-02
 1.82595e-02
 1.78643e-02
 1.74472e-02
 1.70205e-02
 1.65844e-02
 1.61410e-02
 1.56989e-02
 1.53588e-02
 1.49322e-02
 1.45055e-02
 1.40789e-02
 1.36523e-02
 1.32256e-02
 1.27990e-02
 1.23724e-02
 1.19457e-02
 1.15191e-02
 1.10925e-02
 1.06658e-02
 1.02392e-02
 9.81256e-03
 9.38593e-03
 8.95930e-03
 8.53266e-03
 8.10603e-03
 7.67940e-03
 7.25277e-03
 6.82613e-03
 6.39950e-03
 5.97287e-03
 5.54624e-03
 5.11960e-03
 4.69297e-03
 4.26634e-03
 3.83970e-03
 3.41307e-03
 2.98644e-03
 2.55980e-03
 2.13317e-03
 1.70653e-03
 1.27990e-03
 8.53267e-04
 4.26634e-04
 1.00000e-60
)


51
(
 1.00000e-60
 2.59249e-03
 4.07486e-03
 5.26096e-03
 6.27861e-03
 7.16872e-03
 7.94978e-03
 8.63246e-03
 9.22418e-03
 9.73085e-03
 1.01576e-02
 1.05093e-02
 1.07904e-02
 1.10052e-02
 1.11582e-02
 1.12534e-02
 1.12950e-02
 1.12871e-02
 1.12334e-02
 1.11377e-02
 1.10037e-02
 1.08348e-02
 1.06342e-02
 1.04050e-02
 1.01502e-02
 9.87238e-03
 9.57414e-03
 9.25776e-03
 8.92538e-03
 8.57893e-03
 8.22017e-03
 7.85069e-03
 7.47190e-03
 7.08506e-03
 6.69130e-03
 6.29159e-03
 5.88677e-03
 5.47760e-03
 5.06468e-03
 4.64856e-03
 4.22966e-03
 3.80835e-03
 3.38493e-03
 2.95963e-03
 2.53267e-03
 2.10428e-03
 1.67477e-03
 1.24472e-03
 8.15540e-04
 3.91843e-04
 1.00000e-60
)


51
(
 1.00000e-60
 1.82322e-03
 2.80486e-03
 3.54348e-03
 4.15951e-03
 4.69457e-03
 5.16730e-03
 5.58761e-03
 5.96149e-03
 6.29296e-03
 6.58497e-03
 6.83984e-03
 7.05948e-03
 7.24556e-03
 7.39956e-03
 7.52285e-03
 7.61669e-03
 7.68229e-03
 7.72078e-03
 7.73326e-03
 7.72079e-03
 7.68438e-03
 7.62502e-03
 7.54368e-03
 7.44127e-03
 7.31870e-03
 7.17685e-03
 7.01656e-03
 6.83867e-03
 6.64398e-03
 6.43325e-03
 6.20725e-03
 5.96670e-03
 5.71232e-03
 5.44477e-03
 5.16473e-03
 4.87284e-03
 4.56972e-03
 4.25597e-03
 3.93219e-03
 3.59896e-03
 3.25686e-03
 2.90649e-03
 2.54846e-03
 2.18347e-03
 1.81235e-03
 1.43627e-03
 1.05707e-03
 6.78513e-04
 3.10924e-04
 1.00000e-60
)


51
(
 1.00000e-60
 1.08301e-03
 1.71689e-03
 2.17136e-03
 2.52840e-03
 2.82365e-03
 3.07512e-03
 3.29295e-03
 3.48331e-03
 3.65021e-03
 3.79638e-03
 3.92379e-03
 4.03387e-03
 4.12775e-03
 4.20629e-03
 4.27021e-03
 4.32011e-03
 4.35648e-03
 4.37978e-03
 4.39039e-03
 4.38865e-03
 4.37489e-03
 4.34940e-03
 4.31245e-03
 4.26431e-03
 4.20521e-03
 4.13540e-03
 4.05510e-03
 3.96452e-03
 3.86388e-03
 3.75339e-03
 3.63326e-03
 3.50368e-03
 3.36487e-03
 3.21702e-03
 3.06036e-03
 2.89508e-03
 2.72142e-03
 2.53962e-03
 2.34992e-03
 2.15261e-03
 1.94803e-03
 1.73658e-03
 1.51875e-03
 1.29523e-03
 1.06699e-03
 8.35549e-04
 6.03529e-04
 3.75967e-04
 1.64323e-04
 1.00000e-60
)


51
(
 1.00000e-60
 1.00000e-60
 1.00000e-60
 1.00000e-60
 1.00000e-60
 1.00000e-60
 1.00000e-60
 1.00000e-60
 1.00000e-60
 1.00000e-60
 1.00000e-60
 1.00000e-60
 1.00000e-60
 1.00000e-60
 1.00000e-60
 1.00000e-60
 1.00000e-60
 1.00000e-60
 1.00000e-60
 1.00000e-60
 1.00000e-60
 1.00000e-60
 1.00000e-60
 1.00000e-60
 1.00000e-60
 1.00000e-60
 1.00000e-60
 1.00000e-60
 1.00000e-60
 1.00000e-60
 1.00000e-60
 1.00000e-60
 1.00000e-60
 1.00000e-60
 1.00000e-60
 1.00000e-60
 1.00000e-60
 1.00000e-60
 1.00000e-60
 1.00000e-60
 1.00000e-60
 1.00000e-60
 1.00000e-60
 1.00000e-60
 1.00000e-60
 1.00000e-60
 1.00000e-60
 1.00000e-60
 1.00000e-60
 1.00000e-60
 1.00000e-60
)


)


5
(

51
(
 1.00000e-60
 6.62048e-03
 7.08714e-03
 8.95999e-03
 8.77316e-03
 9.53321e-03
 2.16882e-02
 2.13028e-02
 2.08417e-02
 2.03551e-02
 1.98572e-02
 1.93485e-02
 1.88312e-02
 1.83154e-02
 1.79186e-02
 1.74209e-02
 1.69231e-02
 1.64254e-02
 1.59276e-02
 1.54299e-02
 1.49322e-02
 1.44344e-02
 1.39367e-02
 1.34389e-02
 1.29412e-02
 1.24435e-02
 1.19457e-02
 1.14480e-02
 1.09503e-02
 1.04525e-02
 9.95478e-03
 9.45704e-03
 8.95930e-03
 8.46156e-03
 7.96382e-03
 7.46609e-03
 6.96835e-03
 6.47061e-03
 5.97287e-03
 5.47513e-03
 4.97739e-03
 4.47965e-03
 3.98191e-03
 3.48417e-03
 2.98644e-03
 2.48870e-03
 1.99096e-03
 1.49322e-03
 9.95479e-04
 4.97739e-04
 1.00000e-60
)


51
(
 1.00000e-60
 3.03225e-03
 4.81650e-03
 6.25218e-03
 7.48200e-03
 8.55294e-03
 9.48720e-03
 1.02983e-02
 1.09962e-02
 1.15888e-02
 1.20834e-02
 1.24865e-02
 1.28043e-02
 1.30428e-02
 1.32076e-02
 1.33042e-02
 1.33379e-02
 1.33137e-02
 1.32366e-02
 1.31110e-02
 1.29414e-02
 1.27319e-02
 1.24865e-02
 1.22086e-02
 1.19018e-02
 1.15692e-02
 1.12137e-02
 1.08379e-02
 1.04442e-02
 1.00349e-02
 9.61191e-03
 9.17704e-03
 8.73188e-03
 8.27783e-03
 7.81613e-03
 7.34787e-03
 6.87400e-03
 6.39532e-03
 5.91252e-03
 5.42617e-03
 4.93677e-03
 4.44469e-03
 3.95026e-03
 3.45375e-03
 2.95538e-03
 2.45539e-03
 1.95415e-03
 1.45232e-03
 9.51535e-04
 4.57174e-04
 1.00000e-60
)


51
(
 1.00000e-60
 2.10909e-03
 3.26804e-03
 4.14896e-03
 4.88718e-03
 5.52965e-03
 6.09755e-03
 6.60225e-03
 7.05073e-03
 7.44776e-03
 7.79688e-03
 8.10093e-03
 8.36226e-03
 8.58296e-03
 8.76490e-03
 8.90980e-03
 9.01927e-03
 9.09482e-03
 9.13790e-03
 9.14990e-03
 9.13214e-03
 9.08592e-03
 9.01246e-03
 8.91297e-03
 8.78860e-03
 8.64047e-03
 8.46967e-03
 8.27725e-03
 8.06421e-03
 7.83155e-03
 7.58020e-03
 7.31108e-03
 7.02507e-03
 6.72303e-03
 6.40577e-03
 6.07409e-03
 5.72876e-03
 5.37050e-03
 5.00006e-03
 4.61811e-03
 4.22535e-03
 3.82246e-03
 3.41014e-03
 2.98911e-03
 2.56019e-03
 2.12435e-03
 1.68294e-03
 1.23814e-03
 7.94361e-04
 3.63727e-04
 1.00000e-60
)


51
(
 1.00000e-60
 1.24492e-03
 1.98124e-03
 2.51375e-03
 2.93502e-03
 3.28527e-03
 3.58485e-03
 3.84525e-03
 4.07346e-03
 4.27404e-03
 4.45010e-03
 4.60388e-03
 4.73705e-03
 4.85089e-03
 4.94642e-03
 5.02447e-03
 5.08575e-03
 5.13084e-03
 5.16028e-03
 5.17453e-03
 5.17401e-03
 5.15911e-03
 5.13018e-03
 5.08756e-03
 5.03156e-03
 4.96249e-03
 4.88063e-03
 4.78626e-03
 4.67965e-03
 4.56106e-03
 4.43075e-03
 4.28898e-03
 4.13599e-03
 3.97204e-03
 3.79739e-03
 3.61227e-03
 3.41697e-03
 3.21175e-03
 2.99690e-03
 2.77274e-03
 2.53961e-03
 2.29790e-03
 2.04811e-03
 1.79084e-03
 1.52689e-03
 1.25743e-03
 9.84281e-04
 7.10545e-04
 4.42217e-04
 1.92917e-04
 1.00000e-60
)


51
(
 1.00000e-60
 1.00000e-60
 1.00000e-60
 1.00000e-60
 1.00000e-60
 1.00000e-60
 1.00000e-60
 1.00000e-60
 1.00000e-60
 1.00000e-60
 1.00000e-60
 1.00000e-60
 1.00000e-60
 1.00000e-60
 1.00000e-60
 1.00000e-60
 1.00000e-60
 1.00000e-60
 1.00000e-60
 1.00000e-60
 1.00000e-60
 1.00000e-60
 1.00000e-60
 1.00000e-60
 1.00000e-60
 1.00000e-60
 1.00000e-60
 1.00000e-60
 1.00000e-60
 1.00000e-60
 1.00000e-60
 1.00000e-60
 1.00000e-60
 1.00000e-60
 1.00000e-60
 1.00000e-60
 1.00000e-60
 1.00000e-60
 1.00000e-60
 1.00000e-60
 1.00000e-60
 1.00000e-60
 1.00000e-60
 1.00000e-60
 1.00000e-60
 1.00000e-60
 1.00000e-60
 1.00000e-60
 1.00000e-60
 1.00000e-60
 1.00000e-60
)


)


5
(

51
(
 1.00000e-60
 7.48228e-03
 9.20298e-03
 1.16490e-02
 1.14060e-02
 1.17887e-02
 2.47865e-02
 2.43461e-02
 2.38191e-02
 2.32630e-02
 2.26940e-02
 2.21126e-02
 2.15214e-02
 2.09319e-02
 2.04784e-02
 1.99096e-02
 1.93407e-02
 1.87719e-02
 1.82030e-02
 1.76342e-02
 1.70653e-02
 1.64965e-02
 1.59276e-02
 1.53588e-02
 1.47899e-02
 1.42211e-02
 1.36523e-02
 1.30834e-02
 1.25146e-02
 1.19457e-02
 1.13769e-02
 1.08080e-02
 1.02392e-02
 9.67035e-03
 9.10151e-03
 8.53267e-03
 7.96382e-03
 7.39498e-03
 6.82614e-03
 6.25729e-03
 5.68845e-03
 5.11960e-03
 4.55076e-03
 3.98191e-03
 3.41307e-03
 2.84423e-03
 2.27538e-03
 1.70653e-03
 1.13769e-03
 5.68845e-04
 1.00000e-60
)


51
(
 1.00000e-60
 3.49048e-03
 5.59057e-03
 7.28652e-03
 8.73637e-03
 9.99354e-03
 1.10843e-02
 1.20255e-02
 1.28296e-02
 1.35072e-02
 1.40677e-02
 1.45196e-02
 1.48710e-02
 1.51296e-02
 1.53025e-02
 1.53967e-02
 1.54186e-02
 1.53746e-02
 1.52704e-02
 1.51115e-02
 1.49031e-02
 1.46502e-02
 1.43571e-02
 1.40282e-02
 1.36672e-02
 1.32778e-02
 1.28632e-02
 1.24264e-02
 1.19701e-02
 1.14968e-02
 1.10086e-02
 1.05074e-02
 9.99517e-03
 9.47328e-03
 8.94313e-03
 8.40589e-03
 7.86260e-03
 7.31411e-03
 6.76119e-03
 6.20443e-03
 5.64436e-03
 5.08139e-03
 4.51587e-03
 3.94806e-03
 3.37821e-03
 2.80659e-03
 2.23358e-03
 1.65995e-03
 1.08755e-03
 5.22509e-04
 1.00000e-60
)


51
(
 1.00000e-60
 2.40515e-03
 3.74796e-03
 4.77632e-03
 5.64091e-03
 6.39424e-03
 7.06012e-03
 7.65147e-03
 8.17632e-03
 8.64022e-03
 9.04736e-03
 9.40112e-03
 9.70437e-03
 9.95964e-03
 1.01692e-02
 1.03352e-02
 1.04595e-02
 1.05441e-02
 1.05908e-02
 1.06011e-02
 1.05768e-02
 1.05194e-02
 1.04304e-02
 1.03113e-02
 1.01635e-02
 9.98832e-03
 9.78705e-03
 9.56096e-03
 9.31126e-03
 9.03913e-03
 8.74569e-03
 8.43201e-03
 8.09915e-03
 7.74810e-03
 7.37982e-03
 6.99525e-03
 6.59527e-03
 6.18074e-03
 5.75250e-03
 5.31135e-03
 4.85809e-03
 4.39349e-03
 3.91837e-03
 3.43354e-03
 2.93994e-03
 2.43870e-03
 1.93134e-03
 1.42037e-03
 9.10857e-04
 4.16762e-04
 1.00000e-60
)


51
(
 1.00000e-60
 1.41234e-03
 2.25455e-03
 2.86771e-03
 3.35528e-03
 3.76227e-03
 4.11144e-03
 4.41567e-03
 4.68281e-03
 4.91798e-03
 5.12470e-03
 5.30550e-03
 5.46226e-03
 5.59647e-03
 5.70927e-03
 5.80165e-03
 5.87440e-03