/*--------------------------------*- C++ -*----------------------------------*\
| =========                 |                                                 |
| \      /  F ield          | OpenFOAM: The Open Source CFD Toolbox           |
|  \    /   O peration      | Version:  7                                     |
|   \  /    A nd            | Web:      http://www.OpenFOAM.com               |
|    \/     M anipulation   |                                                 |
\*---------------------------------------------------------------------------*/
FoamFile 
{   version     2.0;
    format      ascii;
    class       dictionary;
    location    "constant";
    object      LDMtable;
}
// * * * * * * * * * * * * * * * * * * * * * * * * * * * * * * * * * * * * * //

mu_table
5
(

51
(

5
(

51
(
 1.83493e-05
 1.81304e-05
 1.79454e-05
 1.77228e-05
 1.75145e-05
 1.73194e-05
 1.70950e-05
 1.69013e-05
 1.67117e-05
 1.65261e-05
 1.63443e-05
 1.61663e-05
 1.59918e-05
 1.58208e-05
 1.56533e-05
 1.54890e-05
 1.53280e-05
 1.51701e-05
 1.50152e-05
 1.48633e-05
 1.47142e-05
 1.45679e-05
 1.44243e-05
 1.42834e-05
 1.41451e-05
 1.40092e-05
 1.38758e-05
 1.37448e-05
 1.36161e-05
 1.34896e-05
 1.33653e-05
 1.32432e-05
 1.31231e-05
 1.30051e-05
 1.28891e-05
 1.27750e-05
 1.26628e-05
 1.25524e-05
 1.24439e-05
 1.23371e-05
 1.22320e-05
 1.21285e-05
 1.20268e-05
 1.19266e-05
 1.18279e-05
 1.17308e-05
 1.16353e-05
 1.15411e-05
 1.14483e-05
 1.13570e-05
 1.12670e-05
)


51
(
 1.83493e-05
 1.81227e-05
 1.79004e-05
 1.76828e-05
 1.74700e-05
 1.72620e-05
 1.70587e-05
 1.68601e-05
 1.66662e-05
 1.64768e-05
 1.62917e-05
 1.61110e-05
 1.59344e-05
 1.57618e-05
 1.55931e-05
 1.54282e-05
 1.52668e-05
 1.51089e-05
 1.49544e-05
 1.48031e-05
 1.46549e-05
 1.45098e-05
 1.43675e-05
 1.42280e-05
 1.40913e-05
 1.39572e-05
 1.38256e-05
 1.36965e-05
 1.35697e-05
 1.34453e-05
 1.33231e-05
 1.32031e-05
 1.30852e-05
 1.29693e-05
 1.28555e-05
 1.27436e-05
 1.26336e-05
 1.25254e-05
 1.24190e-05
 1.23144e-05
 1.22114e-05
 1.21102e-05
 1.20105e-05
 1.19124e-05
 1.18158e-05
 1.17208e-05
 1.16272e-05
 1.15350e-05
 1.14442e-05
 1.13549e-05
 1.12670e-05
)


51
(
 1.83493e-05
 1.81139e-05
 1.78837e-05
 1.76594e-05
 1.74409e-05
 1.72281e-05
 1.70208e-05
 1.68188e-05
 1.66219e-05
 1.64300e-05
 1.62428e-05
 1.60602e-05
 1.58820e-05
 1.57081e-05
 1.55383e-05
 1.53724e-05
 1.52104e-05
 1.50520e-05
 1.48972e-05
 1.47459e-05
 1.45978e-05
 1.44529e-05
 1.43112e-05
 1.41724e-05
 1.40365e-05
 1.39033e-05
 1.37729e-05
 1.36451e-05
 1.35198e-05
 1.33969e-05
 1.32764e-05
 1.31581e-05
 1.30421e-05
 1.29282e-05
 1.28164e-05
 1.27067e-05
 1.25988e-05
 1.24929e-05
 1.23888e-05
 1.22866e-05
 1.21860e-05
 1.20872e-05
 1.19900e-05
 1.18943e-05
 1.18003e-05
 1.17078e-05
 1.16167e-05
 1.15271e-05
 1.14389e-05
 1.13522e-05
 1.12670e-05
)


51
(
 1.83493e-05
 1.81063e-05
 1.78697e-05
 1.76397e-05
 1.74162e-05
 1.71989e-05
 1.69875e-05
 1.67820e-05
 1.65819e-05
 1.63872e-05
 1.61976e-05
 1.60129e-05
 1.58329e-05
 1.56574e-05
 1.54863e-05
 1.53194e-05
 1.51566e-05
 1.49976e-05
 1.48424e-05
 1.46908e-05
 1.45427e-05
 1.43980e-05
 1.42565e-05
 1.41182e-05
 1.39828e-05
 1.38505e-05
 1.37209e-05
 1.35941e-05
 1.34699e-05
 1.33483e-05
 1.32292e-05
 1.31125e-05
 1.29981e-05
 1.28859e-05
 1.27760e-05
 1.26681e-05
 1.25623e-05
 1.24585e-05
 1.23567e-05
 1.22567e-05
 1.21585e-05
 1.20621e-05
 1.19675e-05
 1.18745e-05
 1.17831e-05
 1.16933e-05
 1.16050e-05
 1.15183e-05
 1.14331e-05
 1.13493e-05
 1.12670e-05
)


51
(
 1.83493e-05
 1.80985e-05
 1.78555e-05
 1.76199e-05
 1.73913e-05
 1.71696e-05
 1.69543e-05
 1.67451e-05
 1.65420e-05
 1.63444e-05
 1.61524e-05
 1.59655e-05
 1.57837e-05
 1.56066e-05
 1.54342e-05
 1.52662e-05
 1.51025e-05
 1.49430e-05
 1.47873e-05
 1.46355e-05
 1.44874e-05
 1.43428e-05
 1.42016e-05
 1.40638e-05
 1.39291e-05
 1.37975e-05
 1.36688e-05
 1.35431e-05
 1.34201e-05
 1.32998e-05
 1.31821e-05
 1.30669e-05
 1.29541e-05
 1.28437e-05
 1.27356e-05
 1.26297e-05
 1.25260e-05
 1.24243e-05
 1.23246e-05
 1.22270e-05
 1.21312e-05
 1.20372e-05
 1.19451e-05
 1.18547e-05
 1.17660e-05
 1.16790e-05
 1.15935e-05
 1.15097e-05
 1.14273e-05
 1.13464e-05
 1.12670e-05
)


)


5
(

51
(
 1.83493e-05
 1.88164e-05
 1.79648e-05
 1.77459e-05
 1.75353e-05
 1.76237e-05
 1.85270e-05
 1.82204e-05
 1.79253e-05
 1.76435e-05
 1.73747e-05
 1.71181e-05
 1.68745e-05
 1.66450e-05
 1.65039e-05
 1.63012e-05
 1.61035e-05
 1.59106e-05
 1.57222e-05
 1.55382e-05
 1.53583e-05
 1.51824e-05
 1.50102e-05
 1.48417e-05
 1.46767e-05
 1.45150e-05
 1.43566e-05
 1.42012e-05
 1.40488e-05
 1.38993e-05
 1.37525e-05
 1.36084e-05
 1.34668e-05
 1.33277e-05
 1.31909e-05
 1.30565e-05
 1.29243e-05
 1.27942e-05
 1.26662e-05
 1.25401e-05
 1.24160e-05
 1.22937e-05
 1.21732e-05
 1.20545e-05
 1.19373e-05
 1.18219e-05
 1.17080e-05
 1.15956e-05
 1.14846e-05
 1.13752e-05
 1.12670e-05
)


51
(
 1.83493e-05
 1.83875e-05
 1.82663e-05
 1.81139e-05
 1.79501e-05
 1.77811e-05
 1.76095e-05
 1.74367e-05
 1.72634e-05
 1.70901e-05
 1.69171e-05
 1.67447e-05
 1.65730e-05
 1.64021e-05
 1.62322e-05
 1.60633e-05
 1.58956e-05
 1.57292e-05
 1.55642e-05
 1.54006e-05
 1.52385e-05
 1.50781e-05
 1.49193e-05
 1.47623e-05
 1.46072e-05
 1.44540e-05
 1.43027e-05
 1.41534e-05
 1.40062e-05
 1.38610e-05
 1.37180e-05
 1.35770e-05
 1.34381e-05
 1.33013e-05
 1.31666e-05
 1.30339e-05
 1.29033e-05
 1.27746e-05
 1.26479e-05
 1.25232e-05
 1.24003e-05
 1.22793e-05
 1.21600e-05
 1.20425e-05
 1.19266e-05
 1.18124e-05
 1.16998e-05
 1.15888e-05
 1.14793e-05
 1.13717e-05
 1.12670e-05
)


51
(
 1.83493e-05
 1.83147e-05
 1.81647e-05
 1.79889e-05
 1.78047e-05
 1.76180e-05
 1.74312e-05
 1.72456e-05
 1.70618e-05
 1.68801e-05
 1.67008e-05
 1.65238e-05
 1.63494e-05
 1.61774e-05
 1.60079e-05
 1.58409e-05
 1.56763e-05
 1.55141e-05
 1.53543e-05
 1.51968e-05
 1.50416e-05
 1.48886e-05
 1.47378e-05
 1.45892e-05
 1.44427e-05
 1.42983e-05
 1.41559e-05
 1.40155e-05
 1.38771e-05
 1.37405e-05
 1.36059e-05
 1.34731e-05
 1.33421e-05
 1.32129e-05
 1.30855e-05
 1.29597e-05
 1.28357e-05
 1.27133e-05
 1.25925e-05
 1.24733e-05
 1.23556e-05
 1.22396e-05
 1.21250e-05
 1.20119e-05
 1.19003e-05
 1.17902e-05
 1.16816e-05
 1.15745e-05
 1.14691e-05
 1.13659e-05
 1.12670e-05
)


51
(
 1.83493e-05
 1.82337e-05
 1.80610e-05
 1.78705e-05
 1.76738e-05
 1.74758e-05
 1.72787e-05
 1.70838e-05
 1.68917e-05
 1.67028e-05
 1.65172e-05
 1.63351e-05
 1.61564e-05
 1.59811e-05
 1.58092e-05
 1.56405e-05
 1.54752e-05
 1.53129e-05
 1.51537e-05
 1.49975e-05
 1.48442e-05
 1.46937e-05
 1.45460e-05
 1.44009e-05
 1.42583e-05
 1.41183e-05
 1.39806e-05
 1.38454e-05
 1.37124e-05
 1.35816e-05
 1.34530e-05
 1.33264e-05
 1.32019e-05
 1.30794e-05
 1.29588e-05
 1.28401e-05
 1.27232e-05
 1.26081e-05
 1.24948e-05
 1.23831e-05
 1.22731e-05
 1.21647e-05
 1.20579e-05
 1.19527e-05
 1.18491e-05
 1.17470e-05
 1.16466e-05
 1.15479e-05
 1.14511e-05
 1.13569e-05
 1.12670e-05
)


51
(
 1.83493e-05
 1.80985e-05
 1.78555e-05
 1.76199e-05
 1.73913e-05
 1.71696e-05
 1.69543e-05
 1.67451e-05
 1.65420e-05
 1.63444e-05
 1.61524e-05
 1.59655e-05
 1.57837e-05
 1.56066e-05
 1.54342e-05
 1.52662e-05
 1.51025e-05
 1.49430e-05
 1.47873e-05
 1.46355e-05
 1.44874e-05
 1.43428e-05
 1.42016e-05
 1.40638e-05
 1.39291e-05
 1.37975e-05
 1.36688e-05
 1.35431e-05
 1.34201e-05
 1.32998e-05
 1.31821e-05
 1.30669e-05
 1.29541e-05
 1.28437e-05
 1.27356e-05
 1.26297e-05
 1.25260e-05
 1.24243e-05
 1.23246e-05
 1.22270e-05
 1.21312e-05
 1.20372e-05
 1.19451e-05
 1.18547e-05
 1.17660e-05
 1.16790e-05
 1.15935e-05
 1.15097e-05
 1.14273e-05
 1.13464e-05
 1.12670e-05
)


)


5
(

51
(
 1.83493e-05
 1.95024e-05
 1.81440e-05
 1.79603e-05
 1.77178e-05
 1.80797e-05
 1.99591e-05
 1.95396e-05
 1.91389e-05
 1.87610e-05
 1.84050e-05
 1.80699e-05
 1.77572e-05
 1.74693e-05
 1.73545e-05
 1.71134e-05
 1.68790e-05
 1.66511e-05
 1.64293e-05
 1.62132e-05
 1.60025e-05
 1.57968e-05
 1.55961e-05
 1.54001e-05
 1.52083e-05
 1.50209e-05
 1.48373e-05
 1.46576e-05
 1.44815e-05
 1.43090e-05
 1.41396e-05
 1.39736e-05
 1.38105e-05
 1.36502e-05
 1.34928e-05
 1.33380e-05
 1.31858e-05
 1.30360e-05
 1.28885e-05
 1.27432e-05
 1.26000e-05
 1.24589e-05
 1.23197e-05
 1.21823e-05
 1.20467e-05
 1.19129e-05
 1.17807e-05
 1.16500e-05
 1.15209e-05
 1.13933e-05
 1.12670e-05
)


51
(
 1.83493e-05
 1.86531e-05
 1.86285e-05
 1.85389e-05
 1.84235e-05
 1.82941e-05
 1.81556e-05
 1.80105e-05
 1.78600e-05
 1.77050e-05
 1.75462e-05
 1.73840e-05
 1.72189e-05
 1.70512e-05
 1.68813e-05
 1.67095e-05
 1.65362e-05
 1.63617e-05
 1.61864e-05
 1.60106e-05
 1.58345e-05
 1.56586e-05
 1.54831e-05
 1.53083e-05
 1.51344e-05
 1.49616e-05
 1.47902e-05
 1.46203e-05
 1.44521e-05
 1.42858e-05
 1.41213e-05
 1.39589e-05
 1.37986e-05
 1.36404e-05
 1.34843e-05
 1.33305e-05
 1.31788e-05
 1.30293e-05
 1.28820e-05
 1.27367e-05
 1.25935e-05
 1.24523e-05
 1.23131e-05
 1.21757e-05
 1.20402e-05
 1.19064e-05
 1.17743e-05
 1.16439e-05
 1.15153e-05
 1.13888e-05
 1.12670e-05
)


51
(
 1.83493e-05
 1.85190e-05
 1.84476e-05
 1.83186e-05
 1.81674e-05
 1.80060e-05
 1.78392e-05
 1.76698e-05
 1.74990e-05
 1.73277e-05
 1.71565e-05
 1.69857e-05
 1.68155e-05
 1.66461e-05
 1.64776e-05
 1.63101e-05
 1.61437e-05
 1.59784e-05
 1.58143e-05
 1.56515e-05
 1.54898e-05
 1.53294e-05
 1.51702e-05
 1.50124e-05
 1.48558e-05
 1.47006e-05
 1.45466e-05
 1.43940e-05
 1.42427e-05
 1.40928e-05
 1.39442e-05
 1.37969e-05
 1.36510e-05
 1.35064e-05
 1.33632e-05
 1.32213e-05
 1.30808e-05
 1.29416e-05
 1.28037e-05
 1.26672e-05
 1.25321e-05
 1.23982e-05
 1.22657e-05
 1.21346e-05
 1.20048e-05
 1.18764e-05
 1.17494e-05
 1.16240e-05
 1.15006e-05
 1.13800e-05
 1.12670e-05
)


51
(
 1.83493e-05
 1.83647e-05
 1.82562e-05
 1.81047e-05
 1.79344e-05
 1.77551e-05
 1.75719e-05
 1.73874e-05
 1.72030e-05
 1.70198e-05
 1.68382e-05
 1.66586e-05
 1.64812e-05
 1.63062e-05
 1.61335e-05
 1.59633e-05
 1.57955e-05
 1.56302e-05
 1.54672e-05
 1.53066e-05
 1.51483e-05
 1.49922e-05
 1.48384e-05
 1.46867e-05
 1.45371e-05
 1.43895e-05
 1.42440e-05
 1.41004e-05
 1.39587e-05
 1.38189e-05
 1.36809e-05
 1.35446e-05
 1.34101e-05
 1.32772e-05
 1.31460e-05
 1.30163e-05
 1.28883e-05
 1.27618e-05
 1.26368e-05
 1.25132e-05
 1.23911e-05
 1.22705e-05
 1.21513e-05
 1.20336e-05
 1.19174e-05
 1.18026e-05
 1.16896e-05
 1.15785e-05
 1.14698e-05
 1.13648e-05
 1.12670e-05
)


51
(
 1.83493e-05
 1.80985e-05
 1.78555e-05
 1.76199e-05
 1.73913e-05
 1.71696e-05
 1.69543e-05
 1.67451e-05
 1.65420e-05
 1.63444e-05
 1.61524e-05
 1.59655e-05
 1.57837e-05
 1.56066e-05
 1.54342e-05
 1.52662e-05
 1.51025e-05
 1.49430e-05
 1.47873e-05
 1.46355e-05
 1.44874e-05
 1.43428e-05
 1.42016e-05
 1.40638e-05
 1.39291e-05
 1.37975e-05
 1.36688e-05
 1.35431e-05
 1.34201e-05
 1.32998e-05
 1.31821e-05
 1.30669e-05
 1.29541e-05
 1.28437e-05
 1.27356e-05
 1.26297e-05
 1.25260e-05
 1.24243e-05
 1.23246e-05
 1.22270e-05
 1.21312e-05
 1.20372e-05
 1.19451e-05
 1.18547e-05
 1.17660e-05
 1.16790e-05
 1.15935e-05
 1.15097e-05
 1.14273e-05
 1.13464e-05
 1.12670e-05
)


)


5
(

51
(
 1.83493e-05
 2.01884e-05
 1.85002e-05
 1.83863e-05
 1.80791e-05
 1.86270e-05
 2.13911e-05
 2.08587e-05
 2.03526e-05
 1.98784e-05
 1.94354e-05
 1.90217e-05
 1.86400e-05
 1.82935e-05
 1.82052e-05
 1.79256e-05
 1.76545e-05
 1.73917e-05
 1.71364e-05
 1.68882e-05
 1.66466e-05
 1.64113e-05
 1.61820e-05
 1.59584e-05
 1.57400e-05
 1.55267e-05
 1.53181e-05
 1.51141e-05
 1.49143e-05
 1.47187e-05
 1.45268e-05
 1.43387e-05
 1.41541e-05
 1.39728e-05
 1.37946e-05
 1.36196e-05
 1.34473e-05
 1.32778e-05
 1.31108e-05
 1.29463e-05
 1.27841e-05
 1.26240e-05
 1.24662e-05
 1.23102e-05
 1.21561e-05
 1.20040e-05
 1.18535e-05
 1.17045e-05
 1.15572e-05
 1.14115e-05
 1.12670e-05
)


51
(
 1.83493e-05
 1.89324e-05
 1.90147e-05
 1.89964e-05
 1.89359e-05
 1.88508e-05
 1.87484e-05
 1.86324e-05
 1.85051e-05
 1.83679e-05
 1.82220e-05
 1.80683e-05
 1.79076e-05
 1.77407e-05
 1.75683e-05
 1.73911e-05
 1.72096e-05
 1.70246e-05
 1.68367e-05
 1.66465e-05
 1.64544e-05
 1.62612e-05
 1.60671e-05
 1.58728e-05
 1.56786e-05
 1.54849e-05
 1.52921e-05
 1.51005e-05
 1.49103e-05
 1.47217e-05
 1.45351e-05
 1.43505e-05
 1.41680e-05
 1.39877e-05
 1.38098e-05
 1.36342e-05
 1.34610e-05
 1.32902e-05
 1.31217e-05
 1.29555e-05
 1.27915e-05
 1.26297e-05
 1.24700e-05
 1.23124e-05
 1.21567e-05
 1.20029e-05
 1.18508e-05
 1.17006e-05
 1.15522e-05
 1.14064e-05
 1.12670e-05
)


51
(
 1.83493e-05
 1.87309e-05
 1.87419e-05
 1.86634e-05
 1.85486e-05
 1.84153e-05
 1.82711e-05
 1.81200e-05
 1.79640e-05
 1.78046e-05
 1.76427e-05
 1.74789e-05
 1.73136e-05
 1.71471e-05
 1.69799e-05
 1.68120e-05
 1.66436e-05
 1.64750e-05
 1.63062e-05
 1.61374e-05
 1.59687e-05
 1.58002e-05
 1.56319e-05
 1.54640e-05
 1.52965e-05
 1.51296e-05
 1.49632e-05
 1.47974e-05
 1.46323e-05
 1.44679e-05
 1.43043e-05
 1.41415e-05
 1.39796e-05
 1.38186e-05
 1.36586e-05
 1.34995e-05
 1.33414e-05
 1.31843e-05
 1.30283e-05
 1.28733e-05
 1.27195e-05
 1.25668e-05
 1.24152e-05
 1.22648e-05
 1.21156e-05
 1.19677e-05
 1.18212e-05
 1.16764e-05
 1.15337e-05
 1.13948e-05
 1.12670e-05
)


51
(
 1.83493e-05
 1.85005e-05
 1.84579e-05
 1.83469e-05
 1.82041e-05
 1.80450e-05
 1.78768e-05
 1.77038e-05
 1.75283e-05
 1.73518e-05
 1.71751e-05
 1.69989e-05
 1.68236e-05
 1.66495e-05
 1.64767e-05
 1.63055e-05
 1.61357e-05
 1.59676e-05
 1.58012e-05
 1.56363e-05
 1.54731e-05
 1.53116e-05
 1.51516e-05
 1.49932e-05
 1.48365e-05
 1.46812e-05
 1.45275e-05
 1.43752e-05
 1.42245e-05
 1.40751e-05
 1.39271e-05
 1.37806e-05
 1.36353e-05
 1.34914e-05
 1.33488e-05
 1.32075e-05
 1.30675e-05
 1.29286e-05
 1.27910e-05
 1.26547e-05
 1.25195e-05
 1.23856e-05
 1.22530e-05
 1.21216e-05
 1.19916e-05
 1.18631e-05
 1.17363e-05
 1.16116e-05
 1.14899e-05
 1.13732e-05
 1.12670e-05
)


51
(
 1.83493e-05
 1.80985e-05
 1.78555e-05
 1.76199e-05
 1.73913e-05
 1.71696e-05
 1.69543e-05
 1.67451e-05
 1.65420e-05
 1.63444e-05
 1.61524e-05
 1.59655e-05
 1.57837e-05
 1.56066e-05
 1.54342e-05
 1.52662e-05
 1.51025e-05
 1.49430e-05
 1.47873e-05
 1.46355e-05
 1.44874e-05
 1.43428e-05
 1.42016e-05
 1.40638e-05
 1.39291e-05
 1.37975e-05
 1.36688e-05
 1.35431e-05
 1.34201e-05
 1.32998e-05
 1.31821e-05
 1.30669e-05
 1.29541e-05
 1.28437e-05
 1.27356e-05
 1.26297e-05
 1.25260e-05
 1.24243e-05
 1.23246e-05
 1.22270e-05
 1.21312e-05
 1.20372e-05
 1.19451e-05
 1.18547e-05
 1.17660e-05
 1.16790e-05
 1.15935e-05
 1.15097e-05
 1.14273e-05
 1.13464e-05
 1.12670e-05
)


)


5
(

51
(
 1.83493e-05
 2.08744e-05
 1.90201e-05
 1.90079e-05
 1.86056e-05
 1.92589e-05
 2.28232e-05
 2.21778e-05
 2.15662e-05
 2.09958e-05
 2.04658e-05
 1.99736e-05
 1.95227e-05
 1.91177e-05
 1.90558e-05
 1.87377e-05
 1.84301e-05
 1.81322e-05
 1.78434e-05
 1.75632e-05
 1.72908e-05
 1.70258e-05
 1.67679e-05
 1.65167e-05
 1.62716e-05
 1.60325e-05
 1.57989e-05
 1.55705e-05
 1.53470e-05
 1.51284e-05
 1.49139e-05
 1.47039e-05
 1.44978e-05
 1.42953e-05
 1.40965e-05
 1.39011e-05
 1.37088e-05
 1.35195e-05
 1.33331e-05
 1.31493e-05
 1.29681e-05
 1.27892e-05
 1.26126e-05
 1.24381e-05
 1.22655e-05
 1.20950e-05
 1.19262e-05
 1.17590e-05
 1.15935e-05
 1.14296e-05
 1.12670e-05
)


51
(
 1.83493e-05
 1.92253e-05
 1.94242e-05
 1.94851e-05
 1.94853e-05
 1.94486e-05
 1.93848e-05
 1.92992e-05
 1.91953e-05
 1.90754e-05
 1.89413e-05
 1.87945e-05
 1.86364e-05
 1.84683e-05
 1.82913e-05
 1.81064e-05
 1.79146e-05
 1.77170e-05
 1.75145e-05
 1.73079e-05
 1.70980e-05
 1.68856e-05
 1.66714e-05
 1.64561e-05
 1.62402e-05
 1.60243e-05
 1.58089e-05
 1.55945e-05
 1.53813e-05
 1.51697e-05
 1.49600e-05
 1.47523e-05
 1.45470e-05
 1.43440e-05
 1.41436e-05
 1.39457e-05
 1.37504e-05
 1.35576e-05
 1.33675e-05
 1.31798e-05
 1.29946e-05
 1.28118e-05
 1.26312e-05
 1.24528e-05
 1.22764e-05
 1.21020e-05
 1.19295e-05
 1.17588e-05
 1.15901e-05
 1.14243e-05
 1.12670e-05
)


51
(
 1.83493e-05
 1.89506e-05
 1.90478e-05
 1.90231e-05
 1.89478e-05
 1.88454e-05
 1.87262e-05
 1.85954e-05
 1.84561e-05
 1.83100e-05
 1.81585e-05
 1.80025e-05
 1.78427e-05
 1.76797e-05
 1.75139e-05
 1.73456e-05
 1.71753e-05
 1.70031e-05
 1.68294e-05
 1.66543e-05
 1.64781e-05
 1.63009e-05
 1.61229e-05
 1.59443e-05
 1.57651e-05
 1.55857e-05
 1.54060e-05
 1.52261e-05
 1.50463e-05
 1.48666e-05
 1.46871e-05
 1.45078e-05
 1.43289e-05
 1.41504e-05
 1.39725e-05
 1.37951e-05
 1.36183e-05
 1.34423e-05
 1.32670e-05
 1.30924e-05
 1.29188e-05
 1.27460e-05
 1.25741e-05
 1.24032e-05
 1.22334e-05
 1.20648e-05
 1.18975e-05
 1.17319e-05
 1.15688e-05
 1.14104e-05
 1.12670e-05
)


51
(
 1.83493e-05
 1.86413e-05
 1.86664e-05
 1.85972e-05
 1.84833e-05
 1.83454e-05
 1.81936e-05
 1.80333e-05
 1.78677e-05
 1.76988e-05
 1.75280e-05
 1.73561e-05
 1.71837e-05
 1.70112e-05
 1.68390e-05
 1.66672e-05
 1.64960e-05
 1.63255e-05
 1.61559e-05
 1.59871e-05
 1.58191e-05
 1.56522e-05
 1.54861e-05
 1.53211e-05
 1.51570e-05
 1.49938e-05
 1.48317e-05
 1.46705e-05
 1.45102e-05
 1.43509e-05
 1.41925e-05
 1.40351e-05
 1.38786e-05
 1.37230e-05
 1.35683e-05
 1.34145e-05
 1.32616e-05
 1.31095e-05
 1.29584e-05
 1.28083e-05
 1.26590e-05
 1.25107e-05
 1.23634e-05
 1.22173e-05
 1.20723e-05
 1.19287e-05
 1.17869e-05
 1.16474e-05
 1.15115e-05
 1.13820e-05
 1.12670e-05
)


51
(
 1.83493e-05
 1.80985e-05
 1.78555e-05
 1.76199e-05
 1.73913e-05
 1.71696e-05
 1.69543e-05
 1.67451e-05
 1.65420e-05
 1.63444e-05
 1.61524e-05
 1.59655e-05
 1.57837e-05
 1.56066e-05
 1.54342e-05
 1.52662e-05
 1.51025e-05
 1.49430e-05
 1.47873e-05
 1.46355e-05
 1.44874e-05
 1.43428e-05
 1.42016e-05
 1.40638e-05
 1.39291e-05
 1.37975e-05
 1.36688e-05
 1.35431e-05
 1.34201e-05
 1.32998e-05
 1.31821e-05
 1.30669e-05
 1.29541e-05
 1.28437e-05
 1.27356e-05
 1.26297e-05
 1.25260e-05
 1.24243e-05
 1.23246e-05
 1.22270e-05
 1.21312e-05
 1.20372e-05
 1.19451e-05
 1.18547e-05
 1.17660e-05
 1.16790e-05
 1.15935e-05
 1.15097e-05
 1.14273e-05
 1.13464e-05
 1.12670e-05
)


)


5
(

51
(
 1.83493e-05
 2.14420e-05
 1.96903e-05
 1.98089e-05
 1.92841e-05
 1.99687e-05
 2.42553e-05
 2.34970e-05
 2.27798e-05
 2.21132e-05
 2.14961e-05
 2.09254e-05
 2.04054e-05
 1.99419e-05
 1.99064e-05
 1.95499e-05
 1.92056e-05
 1.88728e-05
 1.85505e-05
 1.82381e-05
 1.79349e-05
 1.76403e-05
 1.73537e-05
 1.70750e-05
 1.68032e-05
 1.65383e-05
 1.62796e-05
 1.60269e-05
 1.57798e-05
 1.55380e-05
 1.53011e-05
 1.50691e-05
 1.48415e-05
 1.46179e-05
 1.43983e-05
 1.41826e-05
 1.39703e-05
 1.37613e-05
 1.35554e-05
 1.33524e-05
 1.31521e-05
 1.29544e-05
 1.27591e-05
 1.25660e-05
 1.23749e-05
 1.21860e-05
 1.19990e-05
 1.18135e-05
 1.16299e-05
 1.14477e-05
 1.12670e-05
)


51
(
 1.83493e-05
 1.94969e-05
 1.98216e-05
 1.99731e-05
 2.00442e-05
 2.00637e-05
 2.00445e-05
 1.99937e-05
 1.99160e-05
 1.98151e-05
 1.96936e-05
 1.95540e-05
 1.93982e-05
 1.92281e-05
 1.90454e-05
 1.88517e-05
 1.86484e-05
 1.84368e-05
 1.82182e-05
 1.79938e-05
 1.77647e-05
 1.75318e-05
 1.72961e-05
 1.70586e-05
 1.68198e-05
 1.65806e-05
 1.63415e-05
 1.61032e-05
 1.58660e-05
 1.56304e-05
 1.53968e-05
 1.51654e-05
 1.49364e-05
 1.47100e-05
 1.44863e-05
 1.42655e-05
 1.40475e-05
 1.38323e-05
 1.36199e-05
 1.34102e-05
 1.32033e-05
 1.29988e-05
 1.27968e-05
 1.25971e-05
 1.23995e-05
 1.22040e-05
 1.20104e-05
 1.18187e-05
 1.16291e-05
 1.14427e-05
 1.12670e-05
)


51
(
 1.83493e-05
 1.91462e-05
 1.93278e-05
 1.93602e-05
 1.93289e-05
 1.92623e-05
 1.91727e-05
 1.90666e-05
 1.89477e-05
 1.88185e-05
 1.86806e-05
 1.85353e-05
 1.83835e-05
 1.82261e-05
 1.80636e-05
 1.78966e-05
 1.77256e-05
 1.75511e-05
 1.73733e-05
 1.71927e-05
 1.70096e-05
 1.68241e-05
 1.66367e-05
 1.64475e-05
 1.62568e-05
 1.60647e-05
 1.58715e-05
 1.56774e-05
 1.54825e-05
 1.52869e-05
 1.50909e-05
 1.48945e-05
 1.46980e-05
 1.45013e-05
 1.43046e-05
 1.41081e-05
 1.39118e-05
 1.37158e-05
 1.35202e-05
 1.33250e-05
 1.31303e-05
 1.29363e-05
 1.27430e-05
 1.25504e-05
 1.23587e-05
 1.21680e-05
 1.19786e-05
 1.17909e-05
 1.16059e-05
 1.14267e-05
 1.12670e-05
)


51
(
 1.83493e-05
 1.87641e-05
 1.88502e-05
 1.88203e-05
 1.87350e-05
 1.86192e-05
 1.84850e-05
 1.83392e-05
 1.81855e-05
 1.80264e-05
 1.78636e-05
 1.76981e-05
 1.75306e-05
 1.73618e-05
 1.71921e-05
 1.70216e-05
 1.68507e-05
 1.66796e-05
 1.65084e-05
 1.63371e-05
 1.61659e-05
 1.59948e-05
 1.58239e-05
 1.56532e-05
 1.54828e-05
 1.53127e-05
 1.51429e-05
 1.49734e-05
 1.48043e-05
 1.46355e-05
 1.44671e-05
 1.42991e-05
 1.41315e-05
 1.39643e-05
 1.37975e-05
 1.36311e-05
 1.34652e-05
 1.32998e-05
 1.31348e-05
 1.29704e-05
 1.28065e-05
 1.26432e-05
 1.24806e-05
 1.23189e-05
 1.21581e-05
 1.19986e-05
 1.18408e-05
 1.16855e-05
 1.15345e-05
 1.13914e-05
 1.12670e-05
)


51
(
 1.83493e-05
 1.80985e-05
 1.78555e-05
 1.76199e-05
 1.73913e-05
 1.71696e-05
 1.69543e-05
 1.67451e-05
 1.65420e-05
 1.63444e-05
 1.61524e-05
 1.59655e-05
 1.57837e-05
 1.56066e-05
 1.54342e-05
 1.52662e-05
 1.51025e-05
 1.49430e-05
 1.47873e-05
 1.46355e-05
 1.44874e-05
 1.43428e-05
 1.42016e-05
 1.40638e-05
 1.39291e-05
 1.37975e-05
 1.36688e-05
 1.35431e-05
 1.34201e-05
 1.32998e-05
 1.31821e-05
 1.30669e-05
 1.29541e-05
 1.28437e-05
 1.27356e-05
 1.26297e-05
 1.25260e-05
 1.24243e-05
 1.23246e-05
 1.22270e-05
 1.21312e-05
 1.20372e-05
 1.19451e-05
 1.18547e-05
 1.17660e-05
 1.16790e-05
 1.15935e-05
 1.15097e-05
 1.14273e-05
 1.13464e-05
 1.12670e-05
)


)


5
(

51
(
 1.83493e-05
 2.19308e-05
 2.04975e-05
 2.07733e-05
 2.01012e-05
 2.07494e-05
 2.56873e-05
 2.48161e-05
 2.39934e-05
 2.32306e-05
 2.25265e-05
 2.18772e-05
 2.12881e-05
 2.07661e-05
 2.07571e-05
 2.03621e-05
 1.99811e-05
 1.96133e-05
 1.92576e-05
 1.89131e-05
 1.85791e-05
 1.82547e-05
 1.79396e-05
 1.76333e-05
 1.73348e-05
 1.70441e-05
 1.67604e-05
 1.64833e-05
 1.62125e-05
 1.59477e-05
 1.56882e-05
 1.54343e-05
 1.51851e-05
 1.49404e-05
 1.47002e-05
 1.44641e-05
 1.42318e-05
 1.40031e-05
 1.37777e-05
 1.35554e-05
 1.33361e-05
 1.31196e-05
 1.29055e-05
 1.26939e-05
 1.24843e-05
 1.22771e-05
 1.20717e-05
 1.18680e-05
 1.16662e-05
 1.14659e-05
 1.12670e-05
)


51
(
 1.83493e-05
 1.97605e-05
 2.02222e-05
 2.04750e-05
 2.06251e-05
 2.07068e-05
 2.07362e-05
 2.07226e-05
 2.06727e-05
 2.05913e-05
 2.04825e-05
 2.03494e-05
 2.01950e-05
 2.00220e-05
 1.98325e-05
 1.96286e-05
 1.94124e-05
 1.91854e-05
 1.89494e-05
 1.87058e-05
 1.84561e-05
 1.82014e-05
 1.79429e-05
 1.76818e-05
 1.74190e-05
 1.71552e-05
 1.68913e-05
 1.66280e-05
 1.63659e-05
 1.61053e-05
 1.58468e-05
 1.55907e-05
 1.53372e-05
 1.50866e-05
 1.48390e-05
 1.45945e-05
 1.43531e-05
 1.41148e-05
 1.38796e-05
 1.36473e-05
 1.34180e-05
 1.31914e-05
 1.29673e-05
 1.27457e-05
 1.25264e-05
 1.23091e-05
 1.20938e-05
 1.18804e-05
 1.16692e-05
 1.14616e-05
 1.12670e-05
)


51
(
 1.83493e-05
 1.93285e-05
 1.95963e-05
 1.96899e-05
 1.97071e-05
 1.96806e-05
 1.96246e-05
 1.95466e-05
 1.94513e-05
 1.93416e-05
 1.92197e-05
 1.90870e-05
 1.89450e-05
 1.87945e-05
 1.86366e-05
 1.84719e-05
 1.83012e-05
 1.81249e-05
 1.79436e-05
 1.77578e-05
 1.75680e-05
 1.73744e-05
 1.71776e-05
 1.69777e-05
 1.67752e-05
 1.65702e-05
 1.63632e-05
 1.61543e-05
 1.59438e-05
 1.57318e-05
 1.55186e-05
 1.53044e-05
 1.50894e-05
 1.48737e-05
 1.46574e-05
 1.44407e-05
 1.42238e-05
 1.40068e-05
 1.37897e-05
 1.35727e-05
 1.33558e-05
 1.31393e-05
 1.29231e-05
 1.27074e-05
 1.24923e-05
 1.22781e-05
 1.20650e-05
 1.18536e-05
 1.16453e-05
 1.14439e-05
 1.12670e-05
)


51
(
 1.83493e-05
 1.88758e-05
 1.90195e-05
 1.90284e-05
 1.89723e-05
 1.88798e-05
 1.87649e-05
 1.86352e-05
 1.84952e-05
 1.83477e-05
 1.81946e-05
 1.80372e-05
 1.78764e-05
 1.77128e-05
 1.75470e-05
 1.73794e-05
 1.72101e-05
 1.70396e-05
 1.68679e-05
 1.66952e-05
 1.65217e-05
 1.63474e-05
 1.61724e-05
 1.59969e-05
 1.58208e-05
 1.56442e-05
 1.54672e-05
 1.52898e-05
 1.51121e-05
 1.49341e-05
 1.47557e-05
 1.45772e-05
 1.43984e-05
 1.42194e-05
 1.40403e-05
 1.38611e-05
 1.36817e-05
 1.35023e-05
 1.33229e-05
 1.31435e-05
 1.29642e-05
 1.27851e-05
 1.26063e-05
 1.24279e-05
 1.22502e-05
 1.20736e-05
 1.18987e-05
 1.17264e-05
 1.15590e-05
 1.14013e-05
 1.12670e-05
)


51
(
 1.83493e-05
 1.80985e-05
 1.78555e-05
 1.76199e-05
 1.73913e-05
 1.71696e-05
 1.69543e-05
 1.67451e-05
 1.65420e-05
 1.63444e-05
 1.61524e-05
 1.59655e-05
 1.57837e-05
 1.56066e-05
 1.54342e-05
 1.52662e-05
 1.51025e-05
 1.49430e-05
 1.47873e-05
 1.46355e-05
 1.44874e-05
 1.43428e-05
 1.42016e-05
 1.40638e-05
 1.39291e-05
 1.37975e-05
 1.36688e-05
 1.35431e-05
 1.34201e-05
 1.32998e-05
 1.31821e-05
 1.30669e-05
 1.29541e-05
 1.28437e-05
 1.27356e-05
 1.26297e-05
 1.25260e-05
 1.24243e-05
 1.23246e-05
 1.22270e-05
 1.21312e-05
 1.20372e-05
 1.19451e-05
 1.18547e-05
 1.17660e-05
 1.16790e-05
 1.15935e-05
 1.15097e-05
 1.14273e-05
 1.13464e-05
 1.12670e-05
)


)


5
(

51
(
 1.83493e-05
 2.24393e-05
 2.14284e-05
 2.18850e-05
 2.10436e-05
 2.15943e-05
 2.71194e-05
 2.61353e-05
 2.52071e-05
 2.43480e-05
 2.35569e-05
 2.28290e-05
 2.21709e-05
 2.15903e-05
 2.16077e-05
 2.11742e-05
 2.07566e-05
 2.03538e-05
 1.99646e-05
 1.95881e-05
 1.92232e-05
 1.88692e-05
 1.85255e-05
 1.81917e-05
 1.78665e-05
 1.75499e-05
 1.72411e-05
 1.69397e-05
 1.66452e-05
 1.63574e-05
 1.60754e-05
 1.57995e-05
 1.55288e-05
 1.52630e-05
 1.50020e-05
 1.47457e-05
 1.44934e-05
 1.42449e-05
 1.40000e-05
 1.37585e-05
 1.35202e-05
 1.32847e-05
 1.30520e-05
 1.28217e-05
 1.25937e-05
 1.23681e-05
 1.21445e-05
 1.19225e-05
 1.17025e-05
 1.14840e-05
 1.12670e-05
)


51
(
 1.83493e-05
 2.00461e-05
 2.06568e-05
 2.10182e-05
 2.12515e-05
 2.13974e-05
 2.14759e-05
 2.14992e-05
 2.14760e-05
 2.14128e-05
 2.13149e-05
 2.11867e-05
 2.10321e-05
 2.08543e-05
 2.06562e-05
 2.04406e-05
 2.02097e-05
 1.99658e-05
 1.97108e-05
 1.94466e-05
 1.91748e-05
 1.88968e-05
 1.86143e-05
 1.83282e-05
 1.80400e-05
 1.77504e-05
 1.74605e-05
 1.71711e-05
 1.68828e-05
 1.65961e-05
 1.63117e-05
 1.60299e-05
 1.57510e-05
 1.54753e-05
 1.52029e-05
 1.49338e-05
 1.46683e-05
 1.44061e-05
 1.41473e-05
 1.38918e-05
 1.36394e-05
 1.33899e-05
 1.31432e-05
 1.28991e-05
 1.26573e-05
 1.24176e-05
 1.21799e-05
 1.19441e-05
 1.17106e-05
 1.14810e-05
 1.12670e-05
)


51
(
 1.83493e-05
 1.95241e-05
 1.98847e-05
 2.00443e-05
 2.01137e-05
 2.01300e-05
 2.01097e-05
 2.00616e-05
 1.99911e-05
 1.99019e-05
 1.97964e-05
 1.96769e-05
 1.95448e-05
 1.94014e-05
 1.92480e-05
 1.90855e-05
 1.89147e-05
 1.87364e-05
 1.85512e-05
 1.83599e-05
 1.81628e-05
 1.79606e-05
 1.77537e-05
 1.75425e-05
 1.73275e-05
 1.71090e-05
 1.68873e-05
 1.66628e-05
 1.64357e-05
 1.62064e-05
 1.59751e-05
 1.57421e-05
 1.55075e-05
 1.52715e-05
 1.50345e-05
 1.47965e-05
 1.45577e-05
 1.43182e-05
 1.40783e-05
 1.38380e-05
 1.35975e-05
 1.33569e-05
 1.31163e-05
 1.28759e-05
 1.26358e-05
 1.23963e-05
 1.21577e-05
 1.19209e-05
 1.16875e-05
 1.14621e-05
 1.12670e-05
)


51
(
 1.83493e-05
 1.89953e-05
 1.92005e-05
 1.92509e-05
 1.92261e-05
 1.91587e-05
 1.90647e-05
 1.89525e-05
 1.88274e-05
 1.86925e-05
 1.85501e-05
 1.84016e-05
 1.82481e-05
 1.80904e-05
 1.79291e-05
 1.77647e-05
 1.75974e-05
 1.74277e-05
 1.72558e-05
 1.70819e-05
 1.69061e-05
 1.67286e-05
 1.65494e-05
 1.63688e-05
 1.61869e-05
 1.60036e-05
 1.58190e-05
 1.56333e-05
 1.54465e-05
 1.52586e-05
 1.50698e-05
 1.48800e-05
 1.46893e-05
 1.44977e-05
 1.43053e-05
 1.41122e-05
 1.39183e-05
 1.37238e-05
 1.35288e-05
 1.33331e-05
 1.31371e-05
 1.29407e-05
 1.27442e-05
 1.25476e-05
 1.23514e-05
 1.21560e-05
 1.19622e-05
 1.17712e-05
 1.15857e-05
 1.14119e-05
 1.12670e-05
)


51
(
 1.83493e-05
 1.80985e-05
 1.78555e-05
 1.76199e-05
 1.73913e-05
 1.71696e-05
 1.69543e-05
 1.67451e-05
 1.65420e-05
 1.63444e-05
 1.61524e-05
 1.59655e-05
 1.57837e-05
 1.56066e-05
 1.54342e-05
 1.52662e-05
 1.51025e-05
 1.49430e-05
 1.47873e-05
 1.46355e-05
 1.44874e-05
 1.43428e-05
 1.42016e-05
 1.40638e-05
 1.39291e-05
 1.37975e-05
 1.36688e-05
 1.35431e-05
 1.34201e-05
 1.32998e-05
 1.31821e-05
 1.30669e-05
 1.29541e-05
 1.28437e-05
 1.27356e-05
 1.26297e-05
 1.25260e-05
 1.24243e-05
 1.23246e-05
 1.22270e-05
 1.21312e-05
 1.20372e-05
 1.19451e-05
 1.18547e-05
 1.17660e-05
 1.16790e-05
 1.15935e-05
 1.15097e-05
 1.14273e-05
 1.13464e-05
 1.12670e-05
)


)


5
(

51
(
 1.83493e-05
 2.29630e-05
 2.24696e-05
 2.31279e-05
 2.20978e-05
 2.24965e-05
 2.85514e-05
 2.74544e-05
 2.64207e-05
 2.54655e-05
 2.45873e-05
 2.37809e-05
 2.30536e-05
 2.24146e-05
 2.24583e-05
 2.19864e-05
 2.15322e-05
 2.10944e-05
 2.06717e-05
 2.02631e-05
 1.98674e-05
 1.94837e-05
 1.91114e-05
 1.87500e-05
 1.83981e-05
 1.80557e-05
 1.77219e-05
 1.73962e-05
 1.70780e-05
 1.67671e-05
 1.64625e-05
 1.61646e-05
 1.58725e-05
 1.55856e-05
 1.53039e-05
 1.50272e-05
 1.47549e-05
 1.44866e-05
 1.42223e-05
 1.39616e-05
 1.37042e-05
 1.34499e-05
 1.31985e-05
 1.29496e-05
 1.27031e-05
 1.24592e-05
 1.22172e-05
 1.19769e-05
 1.17388e-05
 1.15022e-05
 1.12670e-05
)


51
(
 1.83493e-05
 2.03540e-05
 2.11266e-05
 2.16041e-05
 2.19245e-05
 2.21364e-05
 2.22644e-05
 2.23241e-05
 2.23265e-05
 2.22802e-05
 2.21918e-05
 2.20670e-05
 2.19105e-05
 2.17265e-05
 2.15185e-05
 2.12896e-05
 2.10427e-05
 2.07805e-05
 2.05051e-05
 2.02189e-05
 1.99236e-05
 1.96211e-05
 1.93130e-05
 1.90007e-05
 1.86857e-05
 1.83690e-05
 1.80517e-05
 1.77348e-05
 1.74191e-05
 1.71052e-05
 1.67937e-05
 1.64850e-05
 1.61796e-05
 1.58777e-05
 1.55794e-05
 1.52849e-05
 1.49942e-05
 1.47073e-05
 1.44241e-05
 1.41445e-05
 1.38682e-05
 1.35952e-05
 1.33251e-05
 1.30577e-05
 1.27927e-05
 1.25298e-05
 1.22690e-05
 1.20100e-05
 1.17533e-05
 1.15009e-05
 1.12670e-05
)


51
(
 1.83493e-05
 1.97326e-05
 2.01931e-05
 2.04239e-05
 2.05496e-05
 2.06119e-05
 2.06296e-05
 2.06131e-05
 2.05688e-05
 2.05009e-05
 2.04127e-05
 2.03067e-05
 2.01849e-05
 2.00489e-05
 1.99000e-05
 1.97396e-05
 1.95687e-05
 1.93881e-05
 1.91989e-05
 1.90016e-05
 1.87969e-05
 1.85856e-05
 1.83682e-05
 1.81451e-05
 1.79170e-05
 1.76842e-05
 1.74471e-05
 1.72062e-05
 1.69618e-05
 1.67142e-05
 1.64638e-05
 1.62108e-05
 1.59555e-05
 1.56982e-05
 1.54391e-05
 1.51784e-05
 1.49164e-05
 1.46531e-05
 1.43888e-05
 1.41237e-05
 1.38578e-05
 1.35914e-05
 1.33246e-05
 1.30575e-05
 1.27905e-05
 1.25238e-05
 1.22578e-05
 1.19934e-05
 1.17327e-05
 1.14815e-05
 1.12670e-05
)


51
(
 1.83493e-05
 1.91221e-05
 1.93926e-05
 1.94873e-05
 1.94962e-05
 1.94560e-05
 1.93845e-05
 1.92915e-05
 1.91826e-05
 1.90616e-05
 1.89310e-05
 1.87924e-05
 1.86470e-05
 1.84960e-05
 1.83398e-05
 1.81791e-05
 1.80144e-05