/*--------------------------------*- C++ -*----------------------------------*\
| =========                 |                                                 |
| \      /  F ield          | OpenFOAM: The Open Source CFD Toolbox           |
|  \    /   O peration      | Version:  7                                     |
|   \  /    A nd            | Web:      http://www.OpenFOAM.com               |
|    \/     M anipulation   |                                                 |
\*---------------------------------------------------------------------------*/
FoamFile 
{   version     2.0;
    format      ascii;
    class       dictionary;
    location    "constant";
    object      LDMtable;
}
// * * * * * * * * * * * * * * * * * * * * * * * * * * * * * * * * * * * * * //

N2_table
5
(

51
(

5
(

51
(
 7.67118e-01
 7.51776e-01
 7.36951e-01
 7.20814e-01
 7.05369e-01
 6.90571e-01
 6.75064e-01
 6.59721e-01
 6.44379e-01
 6.29037e-01
 6.13694e-01
 5.98352e-01
 5.83010e-01
 5.67667e-01
 5.52325e-01
 5.36983e-01
 5.21640e-01
 5.06298e-01
 4.90955e-01
 4.75613e-01
 4.60271e-01
 4.44928e-01
 4.29586e-01
 4.14244e-01
 3.98901e-01
 3.83559e-01
 3.68217e-01
 3.52874e-01
 3.37532e-01
 3.22190e-01
 3.06847e-01
 2.91505e-01
 2.76162e-01
 2.60820e-01
 2.45478e-01
 2.30135e-01
 2.14793e-01
 1.99451e-01
 1.84108e-01
 1.68766e-01
 1.53424e-01
 1.38081e-01
 1.22739e-01
 1.07397e-01
 9.20541e-02
 7.67118e-02
 6.13694e-02
 4.60271e-02
 3.06847e-02
 1.53424e-02
 1.00000e-60
)


51
(
 7.67118e-01
 7.51811e-01
 7.36512e-01
 7.21203e-01
 7.05884e-01
 6.90555e-01
 6.75219e-01
 6.59877e-01
 6.44531e-01
 6.29182e-01
 6.13830e-01
 5.98477e-01
 5.83123e-01
 5.67769e-01
 5.52415e-01
 5.37062e-01
 5.21710e-01
 5.06358e-01
 4.91007e-01
 4.75657e-01
 4.60308e-01
 4.44959e-01
 4.29612e-01
 4.14265e-01
 3.98919e-01
 3.83573e-01
 3.68228e-01
 3.52883e-01
 3.37539e-01
 3.22195e-01
 3.06852e-01
 2.91508e-01
 2.76165e-01
 2.60822e-01
 2.45479e-01
 2.30137e-01
 2.14794e-01
 1.99451e-01
 1.84109e-01
 1.68766e-01
 1.53424e-01
 1.38081e-01
 1.22739e-01
 1.07397e-01
 9.20542e-02
 7.67118e-02
 6.13695e-02
 4.60271e-02
 3.06847e-02
 1.53424e-02
 1.00000e-60
)


51
(
 7.67118e-01
 7.51786e-01
 7.36460e-01
 7.21133e-01
 7.05804e-01
 6.90473e-01
 6.75140e-01
 6.59805e-01
 6.44469e-01
 6.29131e-01
 6.13791e-01
 5.98451e-01
 5.83109e-01
 5.67766e-01
 5.52423e-01
 5.37079e-01
 5.21734e-01
 5.06389e-01
 4.91043e-01
 4.75697e-01
 4.60351e-01
 4.45005e-01
 4.29659e-01
 4.14312e-01
 3.98966e-01
 3.83619e-01
 3.68272e-01
 3.52926e-01
 3.37580e-01
 3.22234e-01
 3.06887e-01
 2.91542e-01
 2.76196e-01
 2.60850e-01
 2.45505e-01
 2.30159e-01
 2.14814e-01
 1.99469e-01
 1.84125e-01
 1.68780e-01
 1.53436e-01
 1.38091e-01
 1.22747e-01
 1.07403e-01
 9.20596e-02
 7.67160e-02
 6.13724e-02
 4.60291e-02
 3.06858e-02
 1.53427e-02
 1.00000e-60
)


51
(
 7.67118e-01
 7.51778e-01
 7.36440e-01
 7.21103e-01
 7.05766e-01
 6.90429e-01
 6.75091e-01
 6.59753e-01
 6.44414e-01
 6.29075e-01
 6.13736e-01
 5.98396e-01
 5.83056e-01
 5.67716e-01
 5.52375e-01
 5.37034e-01
 5.21693e-01
 5.06351e-01
 4.91009e-01
 4.75667e-01
 4.60324e-01
 4.44982e-01
 4.29639e-01
 4.14296e-01
 3.98953e-01
 3.83609e-01
 3.68266e-01
 3.52922e-01
 3.37578e-01
 3.22234e-01
 3.06890e-01
 2.91545e-01
 2.76201e-01
 2.60857e-01
 2.45512e-01
 2.30168e-01
 2.14823e-01
 1.99478e-01
 1.84134e-01
 1.68789e-01
 1.53444e-01
 1.38100e-01
 1.22755e-01
 1.07410e-01
 9.20654e-02
 7.67207e-02
 6.13760e-02
 4.60315e-02
 3.06872e-02
 1.53432e-02
 1.00000e-60
)


51
(
 7.67118e-01
 7.51776e-01
 7.36433e-01
 7.21091e-01
 7.05748e-01
 6.90406e-01
 6.75064e-01
 6.59721e-01
 6.44379e-01
 6.29037e-01
 6.13694e-01
 5.98352e-01
 5.83010e-01
 5.67667e-01
 5.52325e-01
 5.36983e-01
 5.21640e-01
 5.06298e-01
 4.90955e-01
 4.75613e-01
 4.60271e-01
 4.44928e-01
 4.29586e-01
 4.14244e-01
 3.98901e-01
 3.83559e-01
 3.68217e-01
 3.52874e-01
 3.37532e-01
 3.22190e-01
 3.06847e-01
 2.91505e-01
 2.76162e-01
 2.60820e-01
 2.45478e-01
 2.30135e-01
 2.14793e-01
 1.99451e-01
 1.84108e-01
 1.68766e-01
 1.53424e-01
 1.38081e-01
 1.22739e-01
 1.07397e-01
 9.20541e-02
 7.67118e-02
 6.13694e-02
 4.60271e-02
 3.06847e-02
 1.53424e-02
 1.00000e-60
)


)


5
(

51
(
 7.67118e-01
 7.51776e-01
 7.36950e-01
 7.20811e-01
 7.05290e-01
 6.89970e-01
 6.75064e-01
 6.59721e-01
 6.44379e-01
 6.29037e-01
 6.13694e-01
 5.98352e-01
 5.83010e-01
 5.67667e-01
 5.52325e-01
 5.36983e-01
 5.21640e-01
 5.06298e-01
 4.90955e-01
 4.75613e-01
 4.60271e-01
 4.44928e-01
 4.29586e-01
 4.14244e-01
 3.98901e-01
 3.83559e-01
 3.68217e-01
 3.52874e-01
 3.37532e-01
 3.22190e-01
 3.06847e-01
 2.91505e-01
 2.76162e-01
 2.60820e-01
 2.45478e-01
 2.30135e-01
 2.14793e-01
 1.99451e-01
 1.84108e-01
 1.68766e-01
 1.53424e-01
 1.38081e-01
 1.22739e-01
 1.07397e-01
 9.20541e-02
 7.67118e-02
 6.13694e-02
 4.60271e-02
 3.06847e-02
 1.53424e-02
 1.00000e-60
)


51
(
 7.67118e-01
 7.51807e-01
 7.36502e-01
 7.21188e-01
 7.05865e-01
 6.90533e-01
 6.75194e-01
 6.59850e-01
 6.44503e-01
 6.29153e-01
 6.13801e-01
 5.98448e-01
 5.83095e-01
 5.67742e-01
 5.52390e-01
 5.37038e-01
 5.21687e-01
 5.06337e-01
 4.90988e-01
 4.75639e-01
 4.60292e-01
 4.44945e-01
 4.29599e-01
 4.14253e-01
 3.98909e-01
 3.83564e-01
 3.68220e-01
 3.52877e-01
 3.37533e-01
 3.22190e-01
 3.06848e-01
 2.91505e-01
 2.76162e-01
 2.60820e-01
 2.45477e-01
 2.30135e-01
 2.14793e-01
 1.99450e-01
 1.84108e-01
 1.68766e-01
 1.53423e-01
 1.38081e-01
 1.22739e-01
 1.07396e-01
 9.20541e-02
 7.67117e-02
 6.13694e-02
 4.60270e-02
 3.06847e-02
 1.53424e-02
 1.00000e-60
)


51
(
 7.67118e-01
 7.51785e-01
 7.36457e-01
 7.21127e-01
 7.05797e-01
 6.90464e-01
 6.75129e-01
 6.59793e-01
 6.44456e-01
 6.29117e-01
 6.13776e-01
 5.98435e-01
 5.83093e-01
 5.67750e-01
 5.52406e-01
 5.37062e-01
 5.21718e-01
 5.06373e-01
 4.91027e-01
 4.75682e-01
 4.60336e-01
 4.44990e-01
 4.29644e-01
 4.14298e-01
 3.98952e-01
 3.83606e-01
 3.68260e-01
 3.52914e-01
 3.37569e-01
 3.22223e-01
 3.06878e-01
 2.91532e-01
 2.76187e-01
 2.60842e-01
 2.45497e-01
 2.30153e-01
 2.14808e-01
 1.99464e-01
 1.84120e-01
 1.68776e-01
 1.53432e-01
 1.38088e-01
 1.22745e-01
 1.07401e-01
 9.20578e-02
 7.67145e-02
 6.13714e-02
 4.60283e-02
 3.06854e-02
 1.53426e-02
 1.00000e-60
)


51
(
 7.67118e-01
 7.51778e-01
 7.36439e-01
 7.21102e-01
 7.05764e-01
 6.90426e-01
 6.75087e-01
 6.59748e-01
 6.44409e-01
 6.29070e-01
 6.13730e-01
 5.98390e-01
 5.83050e-01
 5.67709e-01
 5.52368e-01
 5.37027e-01
 5.21685e-01
 5.06343e-01
 4.91001e-01
 4.75659e-01
 4.60316e-01
 4.44974e-01
 4.29631e-01
 4.14288e-01
 3.98945e-01
 3.83601e-01
 3.68258e-01
 3.52914e-01
 3.37571e-01
 3.22227e-01
 3.06883e-01
 2.91539e-01
 2.76195e-01
 2.60851e-01
 2.45507e-01
 2.30162e-01
 2.14818e-01
 1.99474e-01
 1.84129e-01
 1.68785e-01
 1.53441e-01
 1.38096e-01
 1.22752e-01
 1.07408e-01
 9.20633e-02
 7.67191e-02
 6.13748e-02
 4.60307e-02
 3.06867e-02
 1.53430e-02
 1.00000e-60
)


51
(
 7.67118e-01
 7.51776e-01
 7.36433e-01
 7.21091e-01
 7.05748e-01
 6.90406e-01
 6.75064e-01
 6.59721e-01
 6.44379e-01
 6.29037e-01
 6.13694e-01
 5.98352e-01
 5.83010e-01
 5.67667e-01
 5.52325e-01
 5.36983e-01
 5.21640e-01
 5.06298e-01
 4.90955e-01
 4.75613e-01
 4.60271e-01
 4.44928e-01
 4.29586e-01
 4.14244e-01
 3.98901e-01
 3.83559e-01
 3.68217e-01
 3.52874e-01
 3.37532e-01
 3.22190e-01
 3.06847e-01
 2.91505e-01
 2.76162e-01
 2.60820e-01
 2.45478e-01
 2.30135e-01
 2.14793e-01
 1.99451e-01
 1.84108e-01
 1.68766e-01
 1.53424e-01
 1.38081e-01
 1.22739e-01
 1.07397e-01
 9.20541e-02
 7.67118e-02
 6.13694e-02
 4.60271e-02
 3.06847e-02
 1.53424e-02
 1.00000e-60
)


)


5
(

51
(
 7.67118e-01
 7.51776e-01
 7.36948e-01
 7.20782e-01
 7.05167e-01
 6.89593e-01
 6.75064e-01
 6.59721e-01
 6.44379e-01
 6.29037e-01
 6.13694e-01
 5.98352e-01
 5.83010e-01
 5.67667e-01
 5.52325e-01
 5.36983e-01
 5.21640e-01
 5.06298e-01
 4.90955e-01
 4.75613e-01
 4.60271e-01
 4.44928e-01
 4.29586e-01
 4.14244e-01
 3.98901e-01
 3.83559e-01
 3.68217e-01
 3.52874e-01
 3.37532e-01
 3.22190e-01
 3.06847e-01
 2.91505e-01
 2.76162e-01
 2.60820e-01
 2.45478e-01
 2.30135e-01
 2.14793e-01
 1.99451e-01
 1.84108e-01
 1.68766e-01
 1.53424e-01
 1.38081e-01
 1.22739e-01
 1.07397e-01
 9.20541e-02
 7.67118e-02
 6.13694e-02
 4.60271e-02
 3.06847e-02
 1.53424e-02
 1.00000e-60
)


51
(
 7.67118e-01
 7.51804e-01
 7.36495e-01
 7.21177e-01
 7.05850e-01
 6.90515e-01
 6.75175e-01
 6.59830e-01
 6.44481e-01
 6.29131e-01
 6.13779e-01
 5.98426e-01
 5.83074e-01
 5.67722e-01
 5.52370e-01
 5.37019e-01
 5.21670e-01
 5.06321e-01
 4.90973e-01
 4.75626e-01
 4.60279e-01
 4.44934e-01
 4.29589e-01
 4.14245e-01
 3.98901e-01
 3.83557e-01
 3.68214e-01
 3.52872e-01
 3.37529e-01
 3.22187e-01
 3.06844e-01
 2.91502e-01
 2.76160e-01
 2.60818e-01
 2.45476e-01
 2.30134e-01
 2.14792e-01
 1.99449e-01
 1.84107e-01
 1.68765e-01
 1.53423e-01
 1.38081e-01
 1.22738e-01
 1.07396e-01
 9.20539e-02
 7.67116e-02
 6.13693e-02
 4.60270e-02
 3.06847e-02
 1.53423e-02
 1.00000e-60
)


51
(
 7.67118e-01
 7.51784e-01
 7.36454e-01
 7.21123e-01
 7.05791e-01
 6.90457e-01
 6.75121e-01
 6.59784e-01
 6.44446e-01
 6.29106e-01
 6.13765e-01
 5.98423e-01
 5.83081e-01
 5.67738e-01
 5.52394e-01
 5.37050e-01
 5.21705e-01
 5.06360e-01
 4.91015e-01
 4.75669e-01
 4.60324e-01
 4.44978e-01
 4.29633e-01
 4.14287e-01
 3.98941e-01
 3.83596e-01
 3.68250e-01
 3.52905e-01
 3.37560e-01
 3.22215e-01
 3.06870e-01
 2.91525e-01
 2.76181e-01
 2.60836e-01
 2.45492e-01
 2.30148e-01
 2.14804e-01
 1.99460e-01
 1.84116e-01
 1.68773e-01
 1.53429e-01
 1.38086e-01
 1.22742e-01
 1.07399e-01
 9.20563e-02
 7.67134e-02
 6.13705e-02
 4.60278e-02
 3.06851e-02
 1.53425e-02
 1.00000e-60
)


51
(
 7.67118e-01
 7.51777e-01
 7.36439e-01
 7.21100e-01
 7.05762e-01
 6.90423e-01
 6.75084e-01
 6.59745e-01
 6.44406e-01
 6.29066e-01
 6.13726e-01
 5.98385e-01
 5.83045e-01
 5.67704e-01
 5.52362e-01
 5.37021e-01
 5.21679e-01
 5.06337e-01
 4.90995e-01
 4.75653e-01
 4.60310e-01
 4.44968e-01
 4.29625e-01
 4.14282e-01
 3.98939e-01
 3.83595e-01
 3.68252e-01
 3.52909e-01
 3.37565e-01
 3.22221e-01
 3.06878e-01
 2.91534e-01
 2.76190e-01
 2.60846e-01
 2.45502e-01
 2.30158e-01
 2.14814e-01
 1.99470e-01
 1.84126e-01
 1.68782e-01
 1.53438e-01
 1.38094e-01
 1.22750e-01
 1.07406e-01
 9.20618e-02
 7.67178e-02
 6.13739e-02
 4.60301e-02
 3.06864e-02
 1.53429e-02
 1.00000e-60
)


51
(
 7.67118e-01
 7.51776e-01
 7.36433e-01
 7.21091e-01
 7.05748e-01
 6.90406e-01
 6.75064e-01
 6.59721e-01
 6.44379e-01
 6.29037e-01
 6.13694e-01
 5.98352e-01
 5.83010e-01
 5.67667e-01
 5.52325e-01
 5.36983e-01
 5.21640e-01
 5.06298e-01
 4.90955e-01
 4.75613e-01
 4.60271e-01
 4.44928e-01
 4.29586e-01
 4.14244e-01
 3.98901e-01
 3.83559e-01
 3.68217e-01
 3.52874e-01
 3.37532e-01
 3.22190e-01
 3.06847e-01
 2.91505e-01
 2.76162e-01
 2.60820e-01
 2.45478e-01
 2.30135e-01
 2.14793e-01
 1.99451e-01
 1.84108e-01
 1.68766e-01
 1.53424e-01
 1.38081e-01
 1.22739e-01
 1.07397e-01
 9.20541e-02
 7.67118e-02
 6.13694e-02
 4.60271e-02
 3.06847e-02
 1.53424e-02
 1.00000e-60
)


)


5
(

51
(
 7.67118e-01
 7.51776e-01
 7.36943e-01
 7.20727e-01
 7.05011e-01
 6.89231e-01
 6.75064e-01
 6.59721e-01
 6.44379e-01
 6.29037e-01
 6.13694e-01
 5.98352e-01
 5.83010e-01
 5.67667e-01
 5.52325e-01
 5.36983e-01
 5.21640e-01
 5.06298e-01
 4.90955e-01
 4.75613e-01
 4.60271e-01
 4.44928e-01
 4.29586e-01
 4.14244e-01
 3.98901e-01
 3.83559e-01
 3.68217e-01
 3.52874e-01
 3.37532e-01
 3.22190e-01
 3.06847e-01
 2.91505e-01
 2.76162e-01
 2.60820e-01
 2.45478e-01
 2.30135e-01
 2.14793e-01
 1.99451e-01
 1.84108e-01
 1.68766e-01
 1.53424e-01
 1.38081e-01
 1.22739e-01
 1.07397e-01
 9.20541e-02
 7.67118e-02
 6.13694e-02
 4.60271e-02
 3.06847e-02
 1.53424e-02
 1.00000e-60
)


51
(
 7.67118e-01
 7.51801e-01
 7.36487e-01
 7.21164e-01
 7.05834e-01
 6.90496e-01
 6.75153e-01
 6.59806e-01
 6.44457e-01
 6.29106e-01
 6.13754e-01
 5.98402e-01
 5.83050e-01
 5.67699e-01
 5.52348e-01
 5.36999e-01
 5.21650e-01
 5.06303e-01
 4.90956e-01
 4.75611e-01
 4.60266e-01
 4.44922e-01
 4.29578e-01
 4.14235e-01
 3.98892e-01
 3.83550e-01
 3.68208e-01
 3.52866e-01
 3.37524e-01
 3.22183e-01
 3.06841e-01
 2.91499e-01
 2.76158e-01
 2.60816e-01
 2.45474e-01
 2.30132e-01
 2.14791e-01
 1.99449e-01
 1.84107e-01
 1.68765e-01
 1.53423e-01
 1.38080e-01
 1.22738e-01
 1.07396e-01
 9.20538e-02
 7.67116e-02
 6.13693e-02
 4.60270e-02
 3.06847e-02
 1.53423e-02
 1.00000e-60
)


51
(
 7.67118e-01
 7.51783e-01
 7.36451e-01
 7.21119e-01
 7.05785e-01
 6.90449e-01
 6.75112e-01
 6.59774e-01
 6.44434e-01
 6.29094e-01
 6.13752e-01
 5.98410e-01
 5.83067e-01
 5.67724e-01
 5.52380e-01
 5.37035e-01
 5.21691e-01
 5.06346e-01
 4.91001e-01
 4.75656e-01
 4.60311e-01
 4.44965e-01
 4.29620e-01
 4.14275e-01
 3.98930e-01
 3.83585e-01
 3.68240e-01
 3.52895e-01
 3.37551e-01
 3.22206e-01
 3.06862e-01
 2.91517e-01
 2.76173e-01
 2.60830e-01
 2.45486e-01
 2.30142e-01
 2.14799e-01
 1.99455e-01
 1.84112e-01
 1.68769e-01
 1.53426e-01
 1.38083e-01
 1.22740e-01
 1.07397e-01
 9.20548e-02
 7.67122e-02
 6.13696e-02
 4.60272e-02
 3.06847e-02
 1.53424e-02
 1.00000e-60
)


51
(
 7.67118e-01
 7.51777e-01
 7.36438e-01
 7.21099e-01
 7.05760e-01
 6.90421e-01
 6.75081e-01
 6.59742e-01
 6.44402e-01
 6.29061e-01
 6.13721e-01
 5.98380e-01
 5.83039e-01
 5.67698e-01
 5.52356e-01
 5.37015e-01
 5.21673e-01
 5.06331e-01
 4.90989e-01
 4.75646e-01
 4.60304e-01
 4.44961e-01
 4.29618e-01
 4.14275e-01
 3.98932e-01
 3.83589e-01
 3.68246e-01
 3.52902e-01
 3.37559e-01
 3.22215e-01
 3.06872e-01
 2.91528e-01
 2.76185e-01
 2.60841e-01
 2.45497e-01
 2.30154e-01
 2.14810e-01
 1.99466e-01
 1.84122e-01
 1.68779e-01
 1.53435e-01
 1.38091e-01
 1.22747e-01
 1.07404e-01
 9.20601e-02
 7.67165e-02
 6.13729e-02
 4.60294e-02
 3.06860e-02
 1.53428e-02
 1.00000e-60
)


51
(
 7.67118e-01
 7.51776e-01
 7.36433e-01
 7.21091e-01
 7.05748e-01
 6.90406e-01
 6.75064e-01
 6.59721e-01
 6.44379e-01
 6.29037e-01
 6.13694e-01
 5.98352e-01
 5.83010e-01
 5.67667e-01
 5.52325e-01
 5.36983e-01
 5.21640e-01
 5.06298e-01
 4.90955e-01
 4.75613e-01
 4.60271e-01
 4.44928e-01
 4.29586e-01
 4.14244e-01
 3.98901e-01
 3.83559e-01
 3.68217e-01
 3.52874e-01
 3.37532e-01
 3.22190e-01
 3.06847e-01
 2.91505e-01
 2.76162e-01
 2.60820e-01
 2.45478e-01
 2.30135e-01
 2.14793e-01
 1.99451e-01
 1.84108e-01
 1.68766e-01
 1.53424e-01
 1.38081e-01
 1.22739e-01
 1.07397e-01
 9.20541e-02
 7.67118e-02
 6.13694e-02
 4.60271e-02
 3.06847e-02
 1.53424e-02
 1.00000e-60
)


)


5
(

51
(
 7.67118e-01
 7.51776e-01
 7.36937e-01
 7.20647e-01
 7.04827e-01
 6.88885e-01
 6.75064e-01
 6.59721e-01
 6.44379e-01
 6.29037e-01
 6.13694e-01
 5.98352e-01
 5.83010e-01
 5.67667e-01
 5.52325e-01
 5.36983e-01
 5.21640e-01
 5.06298e-01
 4.90955e-01
 4.75613e-01
 4.60271e-01
 4.44928e-01
 4.29586e-01
 4.14244e-01
 3.98901e-01
 3.83559e-01
 3.68217e-01
 3.52874e-01
 3.37532e-01
 3.22190e-01
 3.06847e-01
 2.91505e-01
 2.76162e-01
 2.60820e-01
 2.45478e-01
 2.30135e-01
 2.14793e-01
 1.99451e-01
 1.84108e-01
 1.68766e-01
 1.53424e-01
 1.38081e-01
 1.22739e-01
 1.07397e-01
 9.20541e-02
 7.67118e-02
 6.13694e-02
 4.60271e-02
 3.06847e-02
 1.53424e-02
 1.00000e-60
)


51
(
 7.67118e-01
 7.51797e-01
 7.36478e-01
 7.21151e-01
 7.05816e-01
 6.90475e-01
 6.75130e-01
 6.59781e-01
 6.44431e-01
 6.29079e-01
 6.13727e-01
 5.98375e-01
 5.83024e-01
 5.67674e-01
 5.52325e-01
 5.36977e-01
 5.21630e-01
 5.06284e-01
 4.90939e-01
 4.75595e-01
 4.60251e-01
 4.44909e-01
 4.29567e-01
 4.14225e-01
 3.98884e-01
 3.83542e-01
 3.68201e-01
 3.52860e-01
 3.37519e-01
 3.22178e-01
 3.06837e-01
 2.91496e-01
 2.76155e-01
 2.60814e-01
 2.45473e-01
 2.30131e-01
 2.14789e-01
 1.99448e-01
 1.84106e-01
 1.68764e-01
 1.53422e-01
 1.38080e-01
 1.22738e-01
 1.07396e-01
 9.20537e-02
 7.67115e-02
 6.13692e-02
 4.60270e-02
 3.06847e-02
 1.53423e-02
 1.00000e-60
)


51
(
 7.67118e-01
 7.51782e-01
 7.36448e-01
 7.21114e-01
 7.05778e-01
 6.90441e-01
 6.75102e-01
 6.59763e-01
 6.44422e-01
 6.29081e-01
 6.13739e-01
 5.98396e-01
 5.83053e-01
 5.67709e-01
 5.52365e-01
 5.37020e-01
 5.21676e-01
 5.06331e-01
 4.90986e-01
 4.75641e-01
 4.60296e-01
 4.44951e-01
 4.29607e-01
 4.14262e-01
 3.98917e-01
 3.83573e-01
 3.68229e-01
 3.52884e-01
 3.37540e-01
 3.22196e-01
 3.06853e-01
 2.91509e-01
 2.76166e-01
 2.60822e-01
 2.45479e-01
 2.30136e-01
 2.14793e-01
 1.99450e-01
 1.84108e-01
 1.68765e-01
 1.53422e-01
 1.38080e-01
 1.22738e-01
 1.07395e-01
 9.20531e-02
 7.67109e-02
 6.13687e-02
 4.60265e-02
 3.06844e-02
 1.53422e-02
 1.00000e-60
)


51
(
 7.67118e-01
 7.51777e-01
 7.36437e-01
 7.21097e-01
 7.05758e-01
 6.90418e-01
 6.75078e-01
 6.59738e-01
 6.44397e-01
 6.29057e-01
 6.13716e-01
 5.98375e-01
 5.83033e-01
 5.67692e-01
 5.52350e-01
 5.37008e-01
 5.21666e-01
 5.06324e-01
 4.90981e-01
 4.75639e-01
 4.60296e-01
 4.44954e-01
 4.29611e-01
 4.14268e-01
 3.98925e-01
 3.83582e-01
 3.68239e-01
 3.52895e-01
 3.37552e-01
 3.22209e-01
 3.06866e-01
 2.91522e-01
 2.76179e-01
 2.60836e-01
 2.45492e-01
 2.30149e-01
 2.14805e-01
 1.99462e-01
 1.84118e-01
 1.68775e-01
 1.53432e-01
 1.38088e-01
 1.22745e-01
 1.07402e-01
 9.20583e-02
 7.67150e-02
 6.13718e-02
 4.60286e-02
 3.06856e-02
 1.53426e-02
 1.00000e-60
)


51
(
 7.67118e-01
 7.51776e-01
 7.36433e-01
 7.21091e-01
 7.05748e-01
 6.90406e-01
 6.75064e-01
 6.59721e-01
 6.44379e-01
 6.29037e-01
 6.13694e-01
 5.98352e-01
 5.83010e-01
 5.67667e-01
 5.52325e-01
 5.36983e-01
 5.21640e-01
 5.06298e-01
 4.90955e-01
 4.75613e-01
 4.60271e-01
 4.44928e-01
 4.29586e-01
 4.14244e-01
 3.98901e-01
 3.83559e-01
 3.68217e-01
 3.52874e-01
 3.37532e-01
 3.22190e-01
 3.06847e-01
 2.91505e-01
 2.76162e-01
 2.60820e-01
 2.45478e-01
 2.30135e-01
 2.14793e-01
 1.99451e-01
 1.84108e-01
 1.68766e-01
 1.53424e-01
 1.38081e-01
 1.22739e-01
 1.07397e-01
 9.20541e-02
 7.67118e-02
 6.13694e-02
 4.60271e-02
 3.06847e-02
 1.53424e-02
 1.00000e-60
)


)


5
(

51
(
 7.67118e-01
 7.51776e-01
 7.36930e-01
 7.20546e-01
 7.04617e-01
 6.88555e-01
 6.75064e-01
 6.59721e-01
 6.44379e-01
 6.29037e-01
 6.13694e-01
 5.98352e-01
 5.83010e-01
 5.67667e-01
 5.52325e-01
 5.36983e-01
 5.21640e-01
 5.06298e-01
 4.90955e-01
 4.75613e-01
 4.60271e-01
 4.44928e-01
 4.29586e-01
 4.14244e-01
 3.98901e-01
 3.83559e-01
 3.68217e-01
 3.52874e-01
 3.37532e-01
 3.22190e-01
 3.06847e-01
 2.91505e-01
 2.76162e-01
 2.60820e-01
 2.45478e-01
 2.30135e-01
 2.14793e-01
 1.99451e-01
 1.84108e-01
 1.68766e-01
 1.53424e-01
 1.38081e-01
 1.22739e-01
 1.07397e-01
 9.20541e-02
 7.67118e-02
 6.13694e-02
 4.60271e-02
 3.06847e-02
 1.53424e-02
 1.00000e-60
)


51
(
 7.67118e-01
 7.51793e-01
 7.36468e-01
 7.21136e-01
 7.05797e-01
 6.90453e-01
 6.75105e-01
 6.59755e-01
 6.44403e-01
 6.29051e-01
 6.13699e-01
 5.98347e-01
 5.82997e-01
 5.67648e-01
 5.52300e-01
 5.36953e-01
 5.21608e-01
 5.06264e-01
 4.90920e-01
 4.75578e-01
 4.60236e-01
 4.44895e-01
 4.29555e-01
 4.14214e-01
 3.98874e-01
 3.83534e-01
 3.68194e-01
 3.52854e-01
 3.37514e-01
 3.22174e-01
 3.06834e-01
 2.91493e-01
 2.76153e-01
 2.60812e-01
 2.45471e-01
 2.30130e-01
 2.14788e-01
 1.99447e-01
 1.84105e-01
 1.68764e-01
 1.53422e-01
 1.38080e-01
 1.22738e-01
 1.07396e-01
 9.20536e-02
 7.67114e-02
 6.13692e-02
 4.60269e-02
 3.06846e-02
 1.53423e-02
 1.00000e-60
)


51
(
 7.67118e-01
 7.51780e-01
 7.36445e-01
 7.21108e-01
 7.05771e-01
 6.90432e-01
 6.75092e-01
 6.59751e-01
 6.44409e-01
 6.29067e-01
 6.13724e-01
 5.98381e-01
 5.83037e-01
 5.67693e-01
 5.52348e-01
 5.37004e-01
 5.21659e-01
 5.06315e-01
 4.90970e-01
 4.75625e-01
 4.60281e-01
 4.44936e-01
 4.29592e-01
 4.14248e-01
 3.98904e-01
 3.83560e-01
 3.68216e-01
 3.52873e-01
 3.37529e-01
 3.22186e-01
 3.06843e-01
 2.91500e-01
 2.76157e-01
 2.60815e-01
 2.45472e-01
 2.30130e-01
 2.14787e-01
 1.99445e-01
 1.84103e-01
 1.68761e-01
 1.53419e-01
 1.38077e-01
 1.22735e-01
 1.07393e-01
 9.20513e-02
 7.67095e-02
 6.13676e-02
 4.60258e-02
 3.06840e-02
 1.53421e-02
 1.00000e-60
)


51
(
 7.67118e-01
 7.51777e-01
 7.36436e-01
 7.21096e-01
 7.05756e-01
 6.90415e-01
 6.75075e-01
 6.59734e-01
 6.44393e-01
 6.29052e-01
 6.13710e-01
 5.98369e-01
 5.83027e-01
 5.67685e-01
 5.52343e-01
 5.37001e-01
 5.21659e-01
 5.06316e-01
 4.90974e-01
 4.75631e-01
 4.60288e-01
 4.44946e-01
 4.29603e-01
 4.14260e-01
 3.98917e-01
 3.83574e-01
 3.68231e-01
 3.52888e-01
 3.37545e-01
 3.22202e-01
 3.06859e-01
 2.91516e-01
 2.76173e-01
 2.60830e-01
 2.45486e-01
 2.30143e-01
 2.14800e-01
 1.99457e-01
 1.84114e-01
 1.68771e-01
 1.53428e-01
 1.38085e-01
 1.22742e-01
 1.07399e-01
 9.20563e-02
 7.67135e-02
 6.13706e-02
 4.60279e-02
 3.06851e-02
 1.53425e-02
 1.00000e-60
)


51
(
 7.67118e-01
 7.51776e-01
 7.36433e-01
 7.21091e-01
 7.05748e-01
 6.90406e-01
 6.75064e-01
 6.59721e-01
 6.44379e-01
 6.29037e-01
 6.13694e-01
 5.98352e-01
 5.83010e-01
 5.67667e-01
 5.52325e-01
 5.36983e-01
 5.21640e-01
 5.06298e-01
 4.90955e-01
 4.75613e-01
 4.60271e-01
 4.44928e-01
 4.29586e-01
 4.14244e-01
 3.98901e-01
 3.83559e-01
 3.68217e-01
 3.52874e-01
 3.37532e-01
 3.22190e-01
 3.06847e-01
 2.91505e-01
 2.76162e-01
 2.60820e-01
 2.45478e-01
 2.30135e-01
 2.14793e-01
 1.99451e-01
 1.84108e-01
 1.68766e-01
 1.53424e-01
 1.38081e-01
 1.22739e-01
 1.07397e-01
 9.20541e-02
 7.67118e-02
 6.13694e-02
 4.60271e-02
 3.06847e-02
 1.53424e-02
 1.00000e-60
)


)


5
(

51
(
 7.67118e-01
 7.51776e-01
 7.36921e-01
 7.20425e-01
 7.04386e-01
 6.88241e-01
 6.75064e-01
 6.59721e-01
 6.44379e-01
 6.29037e-01
 6.13694e-01
 5.98352e-01
 5.83010e-01
 5.67667e-01
 5.52325e-01
 5.36983e-01
 5.21640e-01
 5.06298e-01
 4.90955e-01
 4.75613e-01
 4.60271e-01
 4.44928e-01
 4.29586e-01
 4.14244e-01
 3.98901e-01
 3.83559e-01
 3.68217e-01
 3.52874e-01
 3.37532e-01
 3.22190e-01
 3.06847e-01
 2.91505e-01
 2.76162e-01
 2.60820e-01
 2.45478e-01
 2.30135e-01
 2.14793e-01
 1.99451e-01
 1.84108e-01
 1.68766e-01
 1.53424e-01
 1.38081e-01
 1.22739e-01
 1.07397e-01
 9.20541e-02
 7.67118e-02
 6.13694e-02
 4.60271e-02
 3.06847e-02
 1.53424e-02
 1.00000e-60
)


51
(
 7.67118e-01
 7.51788e-01
 7.36458e-01
 7.21121e-01
 7.05777e-01
 6.90430e-01
 6.75079e-01
 6.59726e-01
 6.44374e-01
 6.29021e-01
 6.13669e-01
 5.98318e-01
 5.82968e-01
 5.67620e-01
 5.52274e-01
 5.36929e-01
 5.21585e-01
 5.06243e-01
 4.90901e-01
 4.75560e-01
 4.60221e-01
 4.44881e-01
 4.29542e-01
 4.14203e-01
 3.98864e-01
 3.83526e-01
 3.68187e-01
 3.52848e-01
 3.37509e-01
 3.22169e-01
 3.06830e-01
 2.91490e-01
 2.76150e-01
 2.60810e-01
 2.45469e-01
 2.30128e-01
 2.14787e-01
 1.99446e-01
 1.84105e-01
 1.68763e-01
 1.53421e-01
 1.38079e-01
 1.22738e-01
 1.07396e-01
 9.20535e-02
 7.67113e-02
 6.13691e-02
 4.60269e-02
 3.06846e-02
 1.53423e-02
 1.00000e-60
)


51
(
 7.67118e-01
 7.51779e-01
 7.36441e-01
 7.21102e-01
 7.05763e-01
 6.90422e-01
 6.75081e-01
 6.59739e-01
 6.44396e-01
 6.29052e-01
 6.13709e-01
 5.98365e-01
 5.83020e-01
 5.67676e-01
 5.52331e-01
 5.36987e-01
 5.21642e-01
 5.06298e-01
 4.90953e-01
 4.75609e-01
 4.60265e-01
 4.44921e-01
 4.29577e-01
 4.14233e-01
 3.98890e-01
 3.83547e-01
 3.68204e-01
 3.52861e-01
 3.37518e-01
 3.22175e-01
 3.06833e-01
 2.91491e-01
 2.76149e-01
 2.60807e-01
 2.45465e-01
 2.30123e-01
 2.14781e-01
 1.99440e-01
 1.84098e-01
 1.68757e-01
 1.53415e-01
 1.38074e-01
 1.22732e-01
 1.07391e-01
 9.20494e-02
 7.67080e-02
 6.13666e-02
 4.60251e-02
 3.06836e-02
 1.53419e-02
 1.00000e-60
)


51
(
 7.67118e-01
 7.51776e-01
 7.36435e-01
 7.21094e-01
 7.05753e-01
 6.90412e-01
 6.75071e-01
 6.59729e-01
 6.44388e-01
 6.29046e-01
 6.13704e-01
 5.98362e-01
 5.83020e-01
 5.67678e-01
 5.52336e-01
 5.36993e-01
 5.21651e-01
 5.06308e-01
 4.90966e-01
 4.75623e-01
 4.60280e-01
 4.44937e-01
 4.29595e-01
 4.14252e-01
 3.98909e-01
 3.83566e-01
 3.68223e-01
 3.52880e-01
 3.37538e-01
 3.22195e-01
 3.06852e-01
 2.91509e-01
 2.76166e-01
 2.60823e-01
 2.45481e-01
 2.30138e-01
 2.14795e-01
 1.99452e-01
 1.84110e-01
 1.68767e-01
 1.53424e-01
 1.38082e-01
 1.22739e-01
 1.07397e-01
 9.20543e-02
 7.67118e-02
 6.13694e-02
 4.60270e-02
 3.06847e-02
 1.53423e-02
 1.00000e-60
)


51
(
 7.67118e-01
 7.51776e-01
 7.36433e-01
 7.21091e-01
 7.05748e-01
 6.90406e-01
 6.75064e-01
 6.59721e-01
 6.44379e-01
 6.29037e-01
 6.13694e-01
 5.98352e-01
 5.83010e-01
 5.67667e-01
 5.52325e-01
 5.36983e-01
 5.21640e-01
 5.06298e-01
 4.90955e-01
 4.75613e-01
 4.60271e-01
 4.44928e-01
 4.29586e-01
 4.14244e-01
 3.98901e-01
 3.83559e-01
 3.68217e-01
 3.52874e-01
 3.37532e-01
 3.22190e-01
 3.06847e-01
 2.91505e-01
 2.76162e-01
 2.60820e-01
 2.45478e-01
 2.30135e-01
 2.14793e-01
 1.99451e-01
 1.84108e-01
 1.68766e-01
 1.53424e-01
 1.38081e-01
 1.22739e-01
 1.07397e-01
 9.20541e-02
 7.67118e-02
 6.13694e-02
 4.60271e-02
 3.06847e-02
 1.53424e-02
 1.00000e-60
)


)


5
(

51
(
 7.67118e-01
 7.51776e-01
 7.36911e-01
 7.20287e-01
 7.04137e-01
 6.87943e-01
 6.75064e-01
 6.59721e-01
 6.44379e-01
 6.29037e-01
 6.13694e-01
 5.98352e-01
 5.83010e-01
 5.67667e-01
 5.52325e-01
 5.36983e-01
 5.21640e-01
 5.06298e-01
 4.90955e-01
 4.75613e-01
 4.60271e-01
 4.44928e-01
 4.29586e-01
 4.14244e-01
 3.98901e-01
 3.83559e-01
 3.68217e-01
 3.52874e-01
 3.37532e-01
 3.22190e-01
 3.06847e-01
 2.91505e-01
 2.76162e-01
 2.60820e-01
 2.45478e-01
 2.30135e-01
 2.14793e-01
 1.99451e-01
 1.84108e-01
 1.68766e-01
 1.53424e-01
 1.38081e-01
 1.22739e-01
 1.07396e-01
 9.20541e-02
 7.67118e-02
 6.13694e-02
 4.60271e-02
 3.06847e-02
 1.53424e-02
 1.00000e-60
)


51
(
 7.67118e-01
 7.51784e-01
 7.36447e-01
 7.21105e-01
 7.05757e-01
 6.90405e-01
 6.75051e-01
 6.59697e-01
 6.44343e-01
 6.28990e-01
 6.13638e-01
 5.98287e-01
 5.82939e-01
 5.67592e-01
 5.52247e-01
 5.36903e-01
 5.21561e-01
 5.06221e-01
 4.90881e-01
 4.75542e-01
 4.60204e-01
 4.44866e-01
 4.29529e-01
 4.14192e-01
 3.98854e-01
 3.83517e-01
 3.68179e-01
 3.52841e-01
 3.37503e-01
 3.22165e-01
 3.06826e-01
 2.91487e-01
 2.76147e-01
 2.60807e-01
 2.45467e-01
 2.30127e-01
 2.14786e-01
 1.99445e-01
 1.84104e-01
 1.68762e-01
 1.53421e-01
 1.38079e-01
 1.22737e-01
 1.07395e-01
 9.20533e-02
 7.67112e-02
 6.13691e-02
 4.60269e-02
 3.06846e-02
 1.53423e-02
 1.00000e-60
)


51
(
 7.67118e-01
 7.51777e-01
 7.36437e-01
 7.21096e-01
 7.05755e-01
 6.90412e-01
 6.75069e-01
 6.59726e-01
 6.44382e-01
 6.29037e-01
 6.13693e-01
 5.98348e-01
 5.83003e-01
 5.67658e-01
 5.52314e-01
 5.36969e-01
 5.21624e-01
 5.06280e-01
 4.90936e-01
 4.75592e-01
 4.60248e-01
 4.44905e-01
 4.29561e-01
 4.14218e-01
 3.98875e-01
 3.83533e-01
 3.68190e-01
 3.52848e-01
 3.37506e-01
 3.22164e-01
 3.06823e-01
 2.91481e-01
 2.76140e-01
 2.60798e-01
 2.45457e-01
 2.30116e-01
 2.14775e-01
 1.99434e-01
 1.84093e-01
 1.68752e-01
 1.53411e-01
 1.38070e-01
 1.22729e-01
 1.07388e-01
 9.20475e-02
 7.67065e-02
 6.13655e-02
 4.60244e-02
 3.06831e-02
 1.53418e-02
 1.00000e-60
)


51
(
 7.67118e-01
 7.51776e-01
 7.36434e-01
 7.21093e-01
 7.05751e-01
 6.90409e-01
 6.75067e-01
 6.59725e-01
 6.44383e-01
 6.29040e-01
 6.13698e-01
 5.98356e-01
 5.83013e-01
 5.67671e-01
 5.52328e-01
 5.36985e-01
 5.21643e-01
 5.06300e-01
 4.90957e-01
 4.75614e-01
 4.60272e-01
 4.44929e-01
 4.29586e-01
 4.14243e-01
 3.98901e-01
 3.83558e-01
 3.68215e-01
 3.52873e-01
 3.37530e-01
 3.22187e-01
 3.06845e-01
 2.91502e-01
 2.76159e-01
 2.60817e-01
 2.45474e-01
 2.30132e-01
 2.14790e-01
 1.99447e-01
 1.84105e-01
 1.68763e-01
 1.53421e-01
 1.38078e-01
 1.22736e-01
 1.07394e-01
 9.20521e-02
 7.67101e-02
 6.13681e-02
 4.60261e-02
 3.06842e-02
 1.53422e-02
 1.00000e-60
)


51
(
 7.67118e-01
 7.51776e-01
 7.36433e-01
 7.21091e-01
 7.05748e-01
 6.90406e-01
 6.75064e-01
 6.59721e-01
 6.44379e-01
 6.29037e-01
 6.13694e-01
 5.98352e-01
 5.83010e-01
 5.67667e-01
 5.52325e-01
 5.36983e-01
 5.21640e-01
 5.06298e-01
 4.90955e-01
 4.75613e-01
 4.60271e-01
 4.44928e-01
 4.29586e-01
 4.14244e-01
 3.98901e-01
 3.83559e-01
 3.68217e-01
 3.52874e-01
 3.37532e-01
 3.22190e-01
 3.06847e-01
 2.91505e-01
 2.76162e-01
 2.60820e-01
 2.45478e-01
 2.30135e-01
 2.14793e-01
 1.99451e-01
 1.84108e-01
 1.68766e-01
 1.53424e-01
 1.38081e-01
 1.22739e-01
 1.07397e-01
 9.20541e-02
 7.67118e-02
 6.13694e-02
 4.60271e-02
 3.06847e-02
 1.53424e-02
 1.00000e-60
)


)


5
(

51
(
 7.67118e-01
 7.51776e-01
 7.36900e-01
 7.20136e-01
 7.03872e-01
 6.87660e-01
 6.75064e-01
 6.59721e-01
 6.44379e-01
 6.29037e-01
 6.13694e-01
 5.98352e-01
 5.83010e-01
 5.67667e-01
 5.52325e-01
 5.36982e-01
 5.21640e-01
 5.06298e-01
 4.90955e-01
 4.75613e-01
 4.60271e-01
 4.44928e-01
 4.29586e-01
 4.14244e-01
 3.98901e-01
 3.83559e-01
 3.68217e-01
 3.52874e-01
 3.37532e-01
 3.22190e-01
 3.06847e-01
 2.91505e-01
 2.76162e-01
 2.60820e-01
 2.45478e-01
 2.30135e-01
 2.14793e-01
 1.99451e-01
 1.84108e-01
 1.68766e-01
 1.53424e-01
 1.38081e-01
 1.22739e-01
 1.07396e-01
 9.20541e-02
 7.67118e-02
 6.13694e-02
 4.60271e-02
 3.06847e-02
 1.53424e-02
 1.00000e-60
)


51
(
 7.67118e-01
 7.51779e-01
 7.36437e-01
 7.21088e-01
 7.05735e-01
 6.90380e-01
 6.75023e-01
 6.59667e-01
 6.44312e-01
 6.28958e-01
 6.13606e-01
 5.98256e-01
 5.82908e-01
 5.67563e-01
 5.52219e-01
 5.36877e-01
 5.21537e-01
 5.06198e-01
 4.90861e-01
 4.75524e-01
 4.60188e-01
 4.44852e-01
 4.29516e-01
 4.14180e-01
 3.98844e-01
 3.83508e-01
 3.68172e-01
 3.52835e-01
 3.37498e-01
 3.22160e-01
 3.06822e-01
 2.91483e-01
 2.76144e-01
 2.60805e-01
 2.45465e-01
 2.30125e-01
 2.14785e-01
 1.99444e-01
 1.84103e-01
 1.68762e-01
 1.53420e-01
 1.38079e-01
 1.22737e-01
 1.07395e-01
 9.20532e-02
 7.67111e-02
 6.13690e-02
 4.60268e-02
 3.06846e-02
 1.53423e-02
 1.00000e-60
)


51
(
 7.67118e-01
 7.51776e-01
 7.36434e-01
 7.21090e-01
 7.05747e-01
 6.90402e-01
 6.75057e-01
 6.59712e-01
 6.44367e-01
 6.29022e-01
 6.13676e-01
 5.98331e-01
 5.82985e-01
 5.67640e-01
 5.52295e-01
 5.36951e-01
 5.21606e-01
 5.06262e-01
 4.90918e-01
 4.75574e-01
 4.60231e-01
 4.44888e-01
 4.29545e-01
 4.14203e-01
 3.98861e-01
 3.83519e-01
 3.68177e-01
 3.52835e-01
 3.37494e-01
 3.22153e-01
 3.06812e-01
 2.91471e-01
 2.76131e-01
 2.60790e-01
 2.45449e-01
 2.30109e-01
 2.14769e-01
 1.99428e-01
 1.84088e-01
 1.68748e-01
 1.53407e-01
 1.38067e-01
 1.22727e-01
 1.07386e-01
 9.20456e-02
 7.67050e-02
 6.13643e-02
 4.60236e-02
 3.06827e-02
 1.53416e-02
 1.00000e-60
)


51
(
 7.67118e-01
 7.51776e-01
 7.36433e-01
 7.21091e-01
 7.05748e-01
 6.90406e-01
 6.75063e-01
 6.59720e-01
 6.44377e-01
 6.29035e-01
 6.13692e-01
 5.98349e-01
 5.83006e-01
 5.67663e-01
 5.52320e-01
 5.36977e-01
 5.21634e-01