/*--------------------------------*- C++ -*----------------------------------*\
| =========                 |                                                 |
| \      /  F ield          | OpenFOAM: The Open Source CFD Toolbox           |
|  \    /   O peration      | Version:  7                                     |
|   \  /    A nd            | Web:      http://www.OpenFOAM.com               |
|    \/     M anipulation   |                                                 |
\*---------------------------------------------------------------------------*/
FoamFile 
{   version     2.0;
    format      ascii;
    class       dictionary;
    location    "constant";
    object      LDMtable;
}
// * * * * * * * * * * * * * * * * * * * * * * * * * * * * * * * * * * * * * //

O2_table
5
(

51
(

5
(

51
(
 2.32882e-01
 2.28224e-01
 2.23872e-01
 2.18970e-01
 2.14277e-01
 2.09782e-01
 2.04936e-01
 2.00279e-01
 1.95621e-01
 1.90963e-01
 1.86306e-01
 1.81648e-01
 1.76990e-01
 1.72333e-01
 1.67675e-01
 1.63018e-01
 1.58360e-01
 1.53702e-01
 1.49045e-01
 1.44387e-01
 1.39729e-01
 1.35072e-01
 1.30414e-01
 1.25756e-01
 1.21099e-01
 1.16441e-01
 1.11783e-01
 1.07126e-01
 1.02468e-01
 9.78105e-02
 9.31529e-02
 8.84952e-02
 8.38376e-02
 7.91799e-02
 7.45223e-02
 6.98646e-02
 6.52070e-02
 6.05494e-02
 5.58917e-02
 5.12341e-02
 4.65764e-02
 4.19188e-02
 3.72611e-02
 3.26035e-02
 2.79459e-02
 2.32882e-02
 1.86306e-02
 1.39729e-02
 9.31529e-03
 4.65764e-03
 1.00000e-60
)


51
(
 2.32882e-01
 2.28244e-01
 2.23609e-01
 2.18970e-01
 2.14326e-01
 2.09677e-01
 2.05024e-01
 2.00368e-01
 1.95710e-01
 1.91049e-01
 1.86387e-01
 1.81724e-01
 1.77061e-01
 1.72397e-01
 1.67733e-01
 1.63070e-01
 1.58406e-01
 1.53743e-01
 1.49081e-01
 1.44418e-01
 1.39756e-01
 1.35095e-01
 1.30434e-01
 1.25773e-01
 1.21113e-01
 1.16453e-01
 1.11793e-01
 1.07134e-01
 1.02475e-01
 9.78161e-02
 9.31574e-02
 8.84989e-02
 8.38405e-02
 7.91823e-02
 7.45241e-02
 6.98661e-02
 6.52081e-02
 6.05502e-02
 5.58924e-02
 5.12346e-02
 4.65768e-02
 4.19191e-02
 3.72613e-02
 3.26036e-02
 2.79460e-02
 2.32883e-02
 1.86306e-02
 1.39730e-02
 9.31530e-03
 4.65765e-03
 1.00000e-60
)


51
(
 2.32882e-01
 2.28230e-01
 2.23581e-01
 2.18932e-01
 2.14282e-01
 2.09631e-01
 2.04978e-01
 2.00325e-01
 1.95671e-01
 1.91016e-01
 1.86360e-01
 1.81703e-01
 1.77046e-01
 1.72389e-01
 1.67731e-01
 1.63073e-01
 1.58414e-01
 1.53755e-01
 1.49096e-01
 1.44436e-01
 1.39776e-01
 1.35117e-01
 1.30457e-01
 1.25797e-01
 1.21137e-01
 1.16477e-01
 1.11817e-01
 1.07157e-01
 1.02497e-01
 9.78375e-02
 9.31777e-02
 8.85180e-02
 8.38584e-02
 7.91988e-02
 7.45393e-02
 6.98800e-02
 6.52207e-02
 6.05615e-02
 5.59023e-02
 5.12433e-02
 4.65844e-02
 4.19255e-02
 3.72668e-02
 3.26081e-02
 2.79496e-02
 2.32911e-02
 1.86326e-02
 1.39743e-02
 9.31605e-03
 4.65791e-03
 1.00000e-60
)


51
(
 2.32882e-01
 2.28226e-01
 2.23571e-01
 2.18916e-01
 2.14261e-01
 2.09606e-01
 2.04951e-01
 2.00296e-01
 1.95640e-01
 1.90984e-01
 1.86328e-01
 1.81672e-01
 1.77016e-01
 1.72359e-01
 1.67703e-01
 1.63046e-01
 1.58389e-01
 1.53732e-01
 1.49074e-01
 1.44417e-01
 1.39759e-01
 1.35101e-01
 1.30443e-01
 1.25785e-01
 1.21127e-01
 1.16469e-01
 1.11811e-01
 1.07152e-01
 1.02494e-01
 9.78354e-02
 9.31768e-02
 8.85182e-02
 8.38594e-02
 7.92007e-02
 7.45419e-02
 6.98830e-02
 6.52241e-02
 6.05652e-02
 5.59062e-02
 5.12473e-02
 4.65883e-02
 4.19293e-02
 3.72703e-02
 3.26113e-02
 2.79523e-02
 2.32933e-02
 1.86344e-02
 1.39755e-02
 9.31671e-03
 4.65812e-03
 1.00000e-60
)


51
(
 2.32882e-01
 2.28224e-01
 2.23567e-01
 2.18909e-01
 2.14252e-01
 2.09594e-01
 2.04936e-01
 2.00279e-01
 1.95621e-01
 1.90963e-01
 1.86306e-01
 1.81648e-01
 1.76990e-01
 1.72333e-01
 1.67675e-01
 1.63017e-01
 1.58360e-01
 1.53702e-01
 1.49045e-01
 1.44387e-01
 1.39729e-01
 1.35072e-01
 1.30414e-01
 1.25756e-01
 1.21099e-01
 1.16441e-01
 1.11783e-01
 1.07126e-01
 1.02468e-01
 9.78105e-02
 9.31528e-02
 8.84952e-02
 8.38376e-02
 7.91799e-02
 7.45223e-02
 6.98646e-02
 6.52070e-02
 6.05493e-02
 5.58917e-02
 5.12341e-02
 4.65764e-02
 4.19188e-02
 3.72611e-02
 3.26035e-02
 2.79459e-02
 2.32882e-02
 1.86306e-02
 1.39729e-02
 9.31528e-03
 4.65764e-03
 1.00000e-60
)


)


5
(

51
(
 2.32882e-01
 2.26613e-01
 2.23823e-01
 2.18910e-01
 2.14195e-01
 2.09147e-01
 2.00066e-01
 1.95495e-01
 1.90941e-01
 1.86393e-01
 1.81849e-01
 1.77309e-01
 1.72772e-01
 1.68233e-01
 1.63684e-01
 1.59137e-01
 1.54590e-01
 1.50044e-01
 1.45497e-01
 1.40950e-01
 1.36403e-01
 1.31856e-01
 1.27310e-01
 1.22763e-01
 1.18216e-01
 1.13669e-01
 1.09123e-01
 1.04576e-01
 1.00029e-01
 9.54823e-02
 9.09355e-02
 8.63887e-02
 8.18419e-02
 7.72952e-02
 7.27484e-02
 6.82016e-02
 6.36548e-02
 5.91081e-02
 5.45613e-02
 5.00145e-02
 4.54677e-02
 4.09210e-02
 3.63742e-02
 3.18274e-02
 2.72806e-02
 2.27339e-02
 1.81871e-02
 1.36403e-02
 9.09355e-03
 4.54677e-03
 1.00000e-60
)


51
(
 2.32882e-01
 2.27591e-01
 2.22636e-01
 2.17748e-01
 2.12888e-01
 2.08045e-01
 2.03216e-01
 1.98399e-01
 1.93595e-01
 1.88805e-01
 1.84028e-01
 1.79265e-01
 1.74516e-01
 1.69782e-01
 1.65062e-01
 1.60357e-01
 1.55664e-01
 1.50985e-01
 1.46319e-01
 1.41665e-01
 1.37022e-01
 1.32389e-01
 1.27766e-01
 1.23153e-01
 1.18547e-01
 1.13949e-01
 1.09358e-01
 1.04772e-01
 1.00193e-01
 9.56175e-02
 9.10467e-02
 8.64797e-02
 8.19159e-02
 7.73549e-02
 7.27963e-02
 6.82399e-02
 6.36853e-02
 5.91322e-02
 5.45804e-02
 5.00297e-02
 4.54800e-02
 4.09311e-02
 3.63830e-02
 3.18354e-02
 2.72884e-02
 2.27418e-02
 1.81956e-02
 1.36496e-02
 9.10343e-03
 4.55584e-03
 1.00000e-60
)


51
(
 2.32882e-01
 2.27746e-01
 2.22860e-01
 2.18042e-01
 2.13254e-01
 2.08484e-01
 2.03728e-01
 1.98981e-01
 1.94243e-01
 1.89514e-01
 1.84791e-01
 1.80076e-01
 1.75367e-01
 1.70665e-01
 1.65969e-01
 1.61279e-01
 1.56596e-01
 1.51918e-01
 1.47247e-01
 1.42581e-01
 1.37920e-01
 1.33265e-01
 1.28616e-01
 1.23971e-01
 1.19332e-01
 1.14698e-01
 1.10068e-01
 1.05444e-01
 1.00823e-01
 9.62073e-02
 9.15957e-02
 8.69881e-02
 8.23846e-02
 7.77848e-02
 7.31887e-02
 6.85961e-02
 6.40069e-02
 5.94209e-02
 5.48380e-02
 5.02581e-02
 4.56810e-02
 4.11065e-02
 3.65346e-02
 3.19649e-02
 2.73975e-02
 2.28320e-02
 1.82681e-02
 1.37055e-02
 9.14304e-03
 4.57829e-03
 1.00000e-60
)


51
(
 2.32882e-01
 2.27930e-01
 2.23110e-01
 2.18341e-01
 2.13599e-01
 2.08875e-01
 2.04161e-01
 1.99457e-01
 1.94758e-01
 1.90066e-01
 1.85378e-01
 1.80694e-01
 1.76014e-01
 1.71338e-01
 1.66665e-01
 1.61995e-01
 1.57328e-01
 1.52664e-01
 1.48003e-01
 1.43345e-01
 1.38689e-01
 1.34036e-01
 1.29385e-01
 1.24737e-01
 1.20091e-01
 1.15448e-01
 1.10807e-01
 1.06168e-01
 1.01532e-01
 9.68976e-02
 9.22658e-02
 8.76362e-02
 8.30087e-02
 7.83834e-02
 7.37603e-02
 6.91392e-02
 6.45201e-02
 5.99030e-02
 5.52879e-02
 5.06747e-02
 4.60633e-02
 4.14538e-02
 3.68459e-02
 3.22397e-02
 2.76349e-02
 2.30314e-02
 1.84287e-02
 1.38265e-02
 9.22336e-03
 4.61688e-03
 1.00000e-60
)


51
(
 2.32882e-01
 2.28224e-01
 2.23567e-01
 2.18909e-01
 2.14252e-01
 2.09594e-01
 2.04936e-01
 2.00279e-01
 1.95621e-01
 1.90963e-01
 1.86306e-01
 1.81648e-01
 1.76990e-01
 1.72333e-01
 1.67675e-01
 1.63017e-01
 1.58360e-01
 1.53702e-01
 1.49045e-01
 1.44387e-01
 1.39729e-01
 1.35072e-01
 1.30414e-01
 1.25756e-01
 1.21099e-01
 1.16441e-01
 1.11783e-01
 1.07126e-01
 1.02468e-01
 9.78105e-02
 9.31528e-02
 8.84952e-02
 8.38376e-02
 7.91799e-02
 7.45223e-02
 6.98646e-02
 6.52070e-02
 6.05493e-02
 5.58917e-02
 5.12341e-02
 4.65764e-02
 4.19188e-02
 3.72611e-02
 3.26035e-02
 2.79459e-02
 2.32882e-02
 1.86306e-02
 1.39729e-02
 9.31528e-03
 4.65764e-03
 1.00000e-60
)


)


5
(

51
(
 2.32882e-01
 2.25001e-01
 2.23374e-01
 2.18360e-01
 2.13656e-01
 2.08110e-01
 1.95195e-01
 1.90711e-01
 1.86261e-01
 1.81823e-01
 1.77392e-01
 1.72969e-01
 1.68553e-01
 1.64134e-01
 1.59693e-01
 1.55257e-01
 1.50821e-01
 1.46385e-01
 1.41949e-01
 1.37513e-01
 1.33077e-01
 1.28641e-01
 1.24205e-01
 1.19769e-01
 1.15334e-01
 1.10898e-01
 1.06462e-01
 1.02026e-01
 9.75899e-02
 9.31540e-02
 8.87181e-02
 8.42822e-02
 7.98463e-02
 7.54104e-02
 7.09745e-02
 6.65386e-02
 6.21027e-02
 5.76668e-02
 5.32309e-02
 4.87950e-02
 4.43591e-02
 3.99232e-02
 3.54873e-02
 3.10513e-02
 2.66154e-02
 2.21795e-02
 1.77436e-02
 1.33077e-02
 8.87182e-03
 4.43591e-03
 1.00000e-60
)


51
(
 2.32882e-01
 2.26939e-01
 2.21663e-01
 2.16525e-01
 2.11446e-01
 2.06404e-01
 2.01394e-01
 1.96412e-01
 1.91459e-01
 1.86535e-01
 1.81640e-01
 1.76776e-01
 1.71941e-01
 1.67136e-01
 1.62360e-01
 1.57612e-01
 1.52892e-01
 1.48199e-01
 1.43530e-01
 1.38886e-01
 1.34264e-01
 1.29662e-01
 1.25079e-01
 1.20515e-01
 1.15966e-01
 1.11431e-01
 1.06910e-01
 1.02400e-01
 9.79012e-02
 9.34113e-02
 8.89296e-02
 8.44550e-02
 7.99867e-02
 7.55237e-02
 7.10654e-02
 6.66112e-02
 6.21604e-02
 5.77125e-02
 5.32671e-02
 4.88239e-02
 4.43824e-02
 3.99426e-02
 3.55042e-02
 3.10669e-02
 2.66306e-02
 2.21953e-02
 1.77606e-02
 1.33263e-02
 8.89154e-03
 4.45402e-03
 1.00000e-60
)


51
(
 2.32882e-01
 2.27262e-01
 2.22140e-01
 2.17152e-01
 2.12226e-01
 2.07337e-01
 2.02475e-01
 1.97635e-01
 1.92812e-01
 1.88007e-01
 1.83217e-01
 1.78442e-01
 1.73680e-01
 1.68933e-01
 1.64198e-01
 1.59477e-01
 1.54768e-01
 1.50071e-01
 1.45386e-01
 1.40714e-01
 1.36052e-01
 1.31402e-01
 1.26762e-01
 1.22133e-01
 1.17515e-01
 1.12906e-01
 1.08308e-01
 1.03718e-01
 9.91378e-02
 9.45662e-02
 9.00032e-02
 8.54483e-02
 8.09013e-02
 7.63618e-02
 7.18296e-02
 6.73045e-02
 6.27859e-02
 5.82738e-02
 5.37678e-02
 4.92676e-02
 4.47728e-02
 4.02833e-02
 3.57988e-02
 3.13188e-02
 2.68430e-02
 2.23710e-02
 1.79022e-02
 1.34356e-02
 8.96945e-03
 4.49846e-03
 1.00000e-60
)


51
(
 2.32882e-01
 2.27634e-01
 2.22649e-01
 2.17766e-01
 2.12938e-01
 2.08143e-01
 2.03372e-01
 1.98617e-01
 1.93877e-01
 1.89147e-01
 1.84427e-01
 1.79716e-01
 1.75012e-01
 1.70316e-01
 1.65626e-01
 1.60943e-01
 1.56266e-01
 1.51595e-01
 1.46930e-01
 1.42270e-01
 1.37616e-01
 1.32967e-01
 1.28324e-01
 1.23685e-01
 1.19052e-01
 1.14423e-01
 1.09800e-01
 1.05181e-01
 1.00566e-01
 9.59568e-02
 9.13517e-02
 8.67512e-02
 8.21551e-02
 7.75633e-02
 7.29758e-02
 6.83926e-02
 6.38134e-02
 5.92383e-02
 5.46671e-02
 5.00999e-02
 4.55363e-02
 4.09764e-02
 3.64199e-02
 3.18666e-02
 2.73162e-02
 2.27684e-02
 1.82223e-02
 1.36769e-02
 9.12970e-03
 4.57553e-03
 1.00000e-60
)


51
(
 2.32882e-01
 2.28224e-01
 2.23567e-01
 2.18909e-01
 2.14252e-01
 2.09594e-01
 2.04936e-01
 2.00279e-01
 1.95621e-01
 1.90963e-01
 1.86306e-01
 1.81648e-01
 1.76990e-01
 1.72333e-01
 1.67675e-01
 1.63017e-01
 1.58360e-01
 1.53702e-01
 1.49045e-01
 1.44387e-01
 1.39729e-01
 1.35072e-01
 1.30414e-01
 1.25756e-01
 1.21099e-01
 1.16441e-01
 1.11783e-01
 1.07126e-01
 1.02468e-01
 9.78105e-02
 9.31528e-02
 8.84952e-02
 8.38376e-02
 7.91799e-02
 7.45223e-02
 6.98646e-02
 6.52070e-02
 6.05493e-02
 5.58917e-02
 5.12341e-02
 4.65764e-02
 4.19188e-02
 3.72611e-02
 3.26035e-02
 2.79459e-02
 2.32882e-02
 1.86306e-02
 1.39729e-02
 9.31528e-03
 4.65764e-03
 1.00000e-60
)


)


5
(

51
(
 2.32882e-01
 2.23389e-01
 2.22479e-01
 2.17260e-01
 2.12613e-01
 2.06773e-01
 1.90325e-01
 1.85927e-01
 1.81581e-01
 1.77253e-01
 1.72935e-01
 1.68630e-01
 1.64334e-01
 1.60035e-01
 1.55701e-01
 1.51376e-01
 1.47051e-01
 1.42726e-01
 1.38401e-01
 1.34076e-01
 1.29751e-01
 1.25426e-01
 1.21101e-01
 1.16776e-01
 1.12451e-01
 1.08126e-01
 1.03801e-01
 9.94759e-02
 9.51508e-02
 9.08258e-02
 8.65008e-02
 8.21757e-02
 7.78507e-02
 7.35257e-02
 6.92006e-02
 6.48756e-02
 6.05505e-02
 5.62255e-02
 5.19005e-02
 4.75754e-02
 4.32504e-02
 3.89254e-02
 3.46003e-02
 3.02753e-02
 2.59502e-02
 2.16252e-02
 1.73002e-02
 1.29751e-02
 8.65008e-03
 4.32504e-03
 1.00000e-60
)


51
(
 2.32882e-01
 2.26267e-01
 2.20644e-01
 2.15233e-01
 2.09918e-01
 2.04666e-01
 1.99466e-01
 1.94315e-01
 1.89212e-01
 1.84155e-01
 1.79146e-01
 1.74184e-01
 1.69268e-01
 1.64398e-01
 1.59573e-01
 1.54790e-01
 1.50050e-01
 1.45349e-01
 1.40685e-01
 1.36057e-01
 1.31461e-01
 1.26896e-01
 1.22359e-01
 1.17847e-01
 1.13359e-01
 1.08892e-01
 1.04444e-01
 1.00013e-01
 9.55968e-02
 9.11943e-02
 8.68035e-02
 8.24230e-02
 7.80514e-02
 7.36877e-02
 6.93306e-02
 6.49793e-02
 6.06330e-02
 5.62908e-02
 5.19523e-02
 4.76168e-02
 4.32840e-02
 3.89535e-02
 3.46249e-02
 3.02980e-02
 2.59726e-02
 2.16485e-02
 1.73254e-02
 1.30028e-02
 8.67962e-03
 4.35220e-03
 1.00000e-60
)


51
(
 2.32882e-01
 2.26772e-01
 2.21403e-01
 2.16236e-01
 2.11164e-01
 2.06149e-01
 2.01175e-01
 1.96235e-01
 1.91324e-01
 1.86440e-01
 1.81579e-01
 1.76742e-01
 1.71927e-01
 1.67133e-01
 1.62360e-01
 1.57607e-01
 1.52873e-01
 1.48159e-01
 1.43463e-01
 1.38785e-01
 1.34124e-01
 1.29481e-01
 1.24854e-01
 1.20243e-01
 1.15648e-01
 1.11068e-01
 1.06502e-01
 1.01951e-01
 9.74131e-02
 9.28885e-02
 8.83767e-02
 8.38770e-02
 7.93891e-02
 7.49125e-02
 7.04466e-02
 6.59911e-02
 6.15455e-02
 5.71093e-02
 5.26821e-02
 4.82635e-02
 4.38530e-02
 3.94501e-02
 3.50545e-02
 3.06656e-02
 2.62829e-02
 2.19056e-02
 1.75331e-02
 1.31637e-02
 8.79467e-03
 4.41821e-03
 1.00000e-60
)


51
(
 2.32882e-01
 2.27337e-01
 2.22183e-01
 2.17183e-01
 2.12266e-01
 2.07398e-01
 2.02566e-01
 1.97759e-01
 1.92973e-01
 1.88204e-01
 1.83450e-01
 1.78709e-01
 1.73981e-01
 1.69263e-01
 1.64556e-01
 1.59859e-01
 1.55171e-01
 1.50493e-01
 1.45823e-01
 1.41162e-01
 1.36509e-01
 1.31865e-01
 1.27229e-01
 1.22600e-01
 1.17979e-01
 1.13366e-01
 1.08760e-01
 1.04162e-01
 9.95707e-02
 9.49866e-02
 9.04094e-02
 8.58390e-02
 8.12755e-02
 7.67185e-02
 7.21680e-02
 6.76240e-02
 6.30862e-02
 5.85545e-02
 5.40289e-02
 4.95091e-02
 4.49949e-02
 4.04862e-02
 3.59827e-02
 3.14840e-02
 2.69897e-02
 2.24991e-02
 1.80112e-02
 1.35241e-02
 9.03427e-03
 4.53359e-03
 1.00000e-60
)


51
(
 2.32882e-01
 2.28224e-01
 2.23567e-01
 2.18909e-01
 2.14252e-01
 2.09594e-01
 2.04936e-01
 2.00279e-01
 1.95621e-01
 1.90963e-01
 1.86306e-01
 1.81648e-01
 1.76990e-01
 1.72333e-01
 1.67675e-01
 1.63017e-01
 1.58360e-01
 1.53702e-01
 1.49045e-01
 1.44387e-01
 1.39729e-01
 1.35072e-01
 1.30414e-01
 1.25756e-01
 1.21099e-01
 1.16441e-01
 1.11783e-01
 1.07126e-01
 1.02468e-01
 9.78105e-02
 9.31528e-02
 8.84952e-02
 8.38376e-02
 7.91799e-02
 7.45223e-02
 6.98646e-02
 6.52070e-02
 6.05493e-02
 5.58917e-02
 5.12341e-02
 4.65764e-02
 4.19188e-02
 3.72611e-02
 3.26035e-02
 2.79459e-02
 2.32882e-02
 1.86306e-02
 1.39729e-02
 9.31528e-03
 4.65764e-03
 1.00000e-60
)


)


5
(

51
(
 2.32882e-01
 2.21778e-01
 2.21166e-01
 2.15646e-01
 2.11097e-01
 2.05149e-01
 1.85454e-01
 1.81143e-01
 1.76901e-01
 1.72683e-01
 1.68479e-01
 1.64291e-01
 1.60115e-01
 1.55935e-01
 1.51710e-01
 1.47496e-01
 1.43282e-01
 1.39068e-01
 1.34853e-01
 1.30639e-01
 1.26425e-01
 1.22211e-01
 1.17997e-01
 1.13783e-01
 1.09568e-01
 1.05354e-01
 1.01140e-01
 9.69259e-02
 9.27117e-02
 8.84976e-02
 8.42834e-02
 8.00692e-02
 7.58551e-02
 7.16409e-02
 6.74267e-02
 6.32126e-02
 5.89984e-02
 5.47842e-02
 5.05700e-02
 4.63559e-02
 4.21417e-02
 3.79275e-02
 3.37134e-02
 2.94992e-02
 2.52850e-02
 2.10709e-02
 1.68567e-02
 1.26425e-02
 8.42834e-03
 4.21417e-03
 1.00000e-60
)


51
(
 2.32882e-01
 2.25576e-01
 2.19581e-01
 2.13877e-01
 2.08310e-01
 2.02836e-01
 1.97440e-01
 1.92116e-01
 1.86861e-01
 1.81673e-01
 1.76552e-01
 1.71496e-01
 1.66504e-01
 1.61575e-01
 1.56707e-01
 1.51897e-01
 1.47142e-01
 1.42439e-01
 1.37787e-01
 1.33180e-01
 1.28617e-01
 1.24093e-01
 1.19606e-01
 1.15152e-01
 1.10728e-01
 1.06332e-01
 1.01961e-01
 9.76107e-02
 9.32803e-02
 8.89671e-02
 8.46689e-02
 8.03840e-02
 7.61105e-02
 7.18470e-02
 6.75921e-02
 6.33445e-02
 5.91032e-02
 5.48674e-02
 5.06361e-02
 4.64087e-02
 4.21848e-02
 3.79637e-02
 3.37451e-02
 2.95288e-02
 2.53144e-02
 2.11016e-02
 1.68901e-02
 1.26793e-02
 8.46767e-03
 4.25037e-03
 1.00000e-60
)


51
(
 2.32882e-01
 2.26276e-01
 2.20651e-01
 2.15297e-01
 2.10070e-01
 2.04922e-01
 1.99831e-01
 1.94786e-01
 1.89783e-01
 1.84815e-01
 1.79882e-01
 1.74982e-01
 1.70111e-01
 1.65271e-01
 1.60459e-01
 1.55675e-01
 1.50917e-01
 1.46186e-01
 1.41480e-01
 1.36798e-01
 1.32141e-01
 1.27506e-01
 1.22894e-01
 1.18303e-01
 1.13734e-01
 1.09185e-01
 1.04655e-01
 1.00144e-01
 9.56516e-02
 9.11765e-02
 8.67184e-02
 8.22764e-02
 7.78500e-02
 7.34384e-02
 6.90411e-02
 6.46574e-02
 6.02868e-02
 5.59285e-02
 5.15821e-02
 4.72468e-02
 4.29222e-02
 3.86075e-02
 3.43023e-02
 3.00059e-02
 2.57175e-02
 2.14362e-02
 1.71610e-02
 1.28897e-02
 8.61877e-03
 4.33756e-03
 1.00000e-60
)


51
(
 2.32882e-01
 2.27039e-01
 2.21714e-01
 2.16594e-01
 2.11584e-01
 2.06641e-01
 2.01745e-01
 1.96883e-01
 1.92050e-01
 1.87240e-01
 1.82450e-01
 1.77678e-01
 1.72922e-01
 1.68182e-01
 1.63456e-01
 1.58744e-01
 1.54045e-01
 1.49359e-01
 1.44684e-01
 1.40022e-01
 1.35370e-01
 1.30731e-01
 1.26102e-01
 1.21484e-01
 1.16876e-01
 1.12279e-01
 1.07691e-01
 1.03114e-01
 9.85467e-02
 9.39889e-02
 8.94405e-02
 8.49014e-02
 8.03715e-02
 7.58505e-02
 7.13383e-02
 6.68348e-02
 6.23397e-02
 5.78529e-02
 5.33742e-02
 4.89033e-02
 4.44400e-02
 3.99840e-02
 3.55350e-02
 3.10924e-02
 2.66557e-02
 2.22240e-02
 1.77957e-02
 1.33684e-02
 8.93718e-03
 4.49110e-03
 1.00000e-60
)


51
(
 2.32882e-01
 2.28224e-01
 2.23567e-01
 2.18909e-01
 2.14252e-01
 2.09594e-01
 2.04936e-01
 2.00279e-01
 1.95621e-01
 1.90963e-01
 1.86306e-01
 1.81648e-01
 1.76990e-01
 1.72333e-01
 1.67675e-01
 1.63017e-01
 1.58360e-01
 1.53702e-01
 1.49045e-01
 1.44387e-01
 1.39729e-01
 1.35072e-01
 1.30414e-01
 1.25756e-01
 1.21099e-01
 1.16441e-01
 1.11783e-01
 1.07126e-01
 1.02468e-01
 9.78105e-02
 9.31528e-02
 8.84952e-02
 8.38376e-02
 7.91799e-02
 7.45223e-02
 6.98646e-02
 6.52070e-02
 6.05493e-02
 5.58917e-02
 5.12341e-02
 4.65764e-02
 4.19188e-02
 3.72611e-02
 3.26035e-02
 2.79459e-02
 2.32882e-02
 1.86306e-02
 1.39729e-02
 9.31528e-03
 4.65764e-03
 1.00000e-60
)


)


5
(

51
(
 2.32882e-01
 2.20388e-01
 2.19466e-01
 2.13552e-01
 2.09141e-01
 2.03256e-01
 1.80584e-01
 1.76359e-01
 1.72220e-01
 1.68112e-01
 1.64022e-01
 1.59952e-01
 1.55897e-01
 1.51836e-01
 1.47719e-01
 1.43616e-01
 1.39512e-01
 1.35409e-01
 1.31306e-01
 1.27202e-01
 1.23099e-01
 1.18996e-01
 1.14892e-01
 1.10789e-01
 1.06686e-01
 1.02583e-01
 9.84793e-02
 9.43759e-02
 9.02727e-02
 8.61694e-02
 8.20661e-02
 7.79628e-02
 7.38594e-02
 6.97561e-02
 6.56529e-02
 6.15495e-02
 5.74462e-02
 5.33429e-02
 4.92396e-02
 4.51363e-02
 4.10330e-02
 3.69297e-02
 3.28264e-02
 2.87231e-02
 2.46198e-02
 2.05165e-02
 1.64132e-02
 1.23099e-02
 8.20661e-03
 4.10330e-03
 1.00000e-60
)


51
(
 2.32882e-01
 2.24930e-01
 2.18545e-01
 2.12524e-01
 2.06682e-01
 2.00968e-01
 1.95362e-01
 1.89854e-01
 1.84440e-01
 1.79116e-01
 1.73882e-01
 1.68733e-01
 1.63668e-01
 1.58683e-01
 1.53775e-01
 1.48941e-01
 1.44177e-01
 1.39479e-01
 1.34842e-01
 1.30262e-01
 1.25735e-01
 1.21258e-01
 1.16825e-01
 1.12432e-01
 1.08077e-01
 1.03754e-01
 9.94615e-02
 9.51953e-02
 9.09525e-02
 8.67305e-02
 8.25266e-02
 7.83386e-02
 7.41644e-02
 7.00021e-02
 6.58501e-02
 6.17070e-02
 5.75713e-02
 5.34422e-02
 4.93185e-02
 4.51996e-02
 4.10847e-02
 3.69733e-02
 3.28650e-02
 2.87593e-02
 2.46559e-02
 2.05546e-02
 1.64548e-02
 1.23558e-02
 8.25570e-03
 4.14853e-03
 1.00000e-60
)


51
(
 2.32882e-01
 2.25828e-01
 2.19953e-01
 2.14406e-01
 2.09015e-01
 2.03724e-01
 1.98506e-01
 1.93349e-01
 1.88244e-01
 1.83187e-01
 1.78175e-01
 1.73205e-01
 1.68276e-01
 1.63385e-01
 1.58531e-01
 1.53713e-01
 1.48929e-01
 1.44180e-01
 1.39463e-01
 1.34777e-01
 1.30122e-01
 1.25496e-01
 1.20899e-01
 1.16330e-01
 1.11787e-01
 1.07270e-01
 1.02777e-01
 9.83084e-02
 9.38624e-02
 8.94385e-02
 8.50356e-02
 8.06529e-02
 7.62895e-02
 7.19447e-02
 6.76176e-02
 6.33073e-02
 5.90132e-02
 5.47343e-02
 5.04700e-02
 4.62196e-02
 4.19821e-02
 3.77570e-02
 3.35435e-02
 2.93406e-02
 2.51476e-02
 2.09633e-02
 1.67863e-02
 1.26141e-02
 8.44189e-03
 4.25656e-03
 1.00000e-60
)


51
(
 2.32882e-01
 2.26776e-01
 2.21294e-01
 2.16060e-01
 2.10957e-01
 2.05938e-01
 2.00975e-01
 1.96056e-01
 1.91172e-01
 1.86317e-01
 1.81487e-01
 1.76681e-01
 1.71895e-01
 1.67129e-01
 1.62381e-01
 1.57651e-01
 1.52937e-01
 1.48240e-01
 1.43558e-01
 1.38891e-01
 1.34239e-01
 1.29602e-01
 1.24979e-01
 1.20369e-01
 1.15773e-01
 1.11190e-01
 1.06620e-01
 1.02063e-01
 9.75187e-02
 9.29865e-02
 8.84663e-02
 8.39580e-02
 7.94613e-02
 7.49760e-02
 7.05020e-02
 6.60389e-02
 6.15866e-02
 5.71447e-02
 5.27131e-02
 4.82915e-02
 4.38794e-02
 3.94766e-02
 3.50826e-02
 3.06967e-02
 2.63182e-02
 2.19459e-02
 1.75779e-02
 1.32111e-02
 8.83922e-03
 4.44830e-03
 1.00000e-60
)


51
(
 2.32882e-01
 2.28224e-01
 2.23567e-01
 2.18909e-01
 2.14252e-01
 2.09594e-01
 2.04936e-01
 2.00279e-01
 1.95621e-01
 1.90963e-01
 1.86306e-01
 1.81648e-01
 1.76990e-01
 1.72333e-01
 1.67675e-01
 1.63017e-01
 1.58360e-01
 1.53702e-01
 1.49045e-01
 1.44387e-01
 1.39729e-01
 1.35072e-01
 1.30414e-01
 1.25756e-01
 1.21099e-01
 1.16441e-01
 1.11783e-01
 1.07126e-01
 1.02468e-01
 9.78105e-02
 9.31528e-02
 8.84952e-02
 8.38376e-02
 7.91799e-02
 7.45223e-02
 6.98646e-02
 6.52070e-02
 6.05493e-02
 5.58917e-02
 5.12341e-02
 4.65764e-02
 4.19188e-02
 3.72611e-02
 3.26035e-02
 2.79459e-02
 2.32882e-02
 1.86306e-02
 1.39729e-02
 9.31528e-03
 4.65764e-03
 1.00000e-60
)


)


5
(

51
(
 2.32882e-01
 2.19138e-01
 2.17409e-01
 2.11014e-01
 2.06774e-01
 2.01108e-01
 1.75714e-01
 1.71575e-01
 1.67540e-01
 1.63542e-01
 1.59565e-01
 1.55612e-01
 1.51678e-01
 1.47736e-01
 1.43728e-01
 1.39735e-01
 1.35743e-01
 1.31750e-01
 1.27758e-01
 1.23765e-01
 1.19773e-01
 1.15781e-01
 1.11788e-01
 1.07796e-01
 1.03803e-01
 9.98108e-02
 9.58184e-02
 9.18260e-02
 8.78336e-02
 8.38411e-02
 7.98487e-02
 7.58563e-02
 7.18638e-02
 6.78714e-02
 6.38790e-02
 5.98865e-02
 5.58941e-02
 5.19017e-02
 4.79092e-02
 4.39168e-02
 3.99243e-02
 3.59319e-02
 3.19395e-02
 2.79470e-02
 2.39546e-02
 1.99622e-02
 1.59697e-02
 1.19773e-02
 7.98487e-03
 3.99243e-03
 1.00000e-60
)


51
(
 2.32882e-01
 2.24306e-01
 2.17513e-01
 2.11153e-01
 2.05019e-01
 1.99050e-01
 1.93222e-01
 1.87523e-01
 1.81945e-01
 1.76485e-01
 1.71136e-01
 1.65896e-01
 1.60760e-01
 1.55723e-01
 1.50781e-01
 1.45928e-01
 1.41159e-01
 1.36469e-01
 1.31853e-01
 1.27304e-01
 1.22819e-01
 1.18391e-01
 1.14016e-01
 1.09689e-01
 1.05404e-01
 1.01159e-01
 9.69477e-02
 9.27674e-02
 8.86143e-02
 8.44851e-02
 8.03770e-02
 7.62872e-02
 7.22134e-02
 6.81532e-02
 6.41050e-02
 6.00668e-02
 5.60374e-02
 5.20154e-02
 4.79998e-02
 4.39896e-02
 3.99840e-02
 3.59825e-02
 3.19845e-02
 2.79895e-02
 2.39973e-02
 2.00074e-02
 1.60194e-02
 1.20322e-02
 8.04370e-03
 4.04668e-03
 1.00000e-60
)


51
(
 2.32882e-01
 2.25410e-01
 2.19283e-01
 2.13536e-01
 2.07975e-01
 2.02533e-01
 1.97181e-01
 1.91904e-01
 1.86692e-01
 1.81540e-01
 1.76445e-01
 1.71402e-01
 1.66409e-01
 1.61465e-01
 1.56567e-01
 1.51714e-01
 1.46904e-01
 1.42135e-01
 1.37407e-01
 1.32718e-01
 1.28066e-01
 1.23450e-01
 1.18869e-01
 1.14321e-01
 1.09806e-01
 1.05323e-01
 1.00869e-01
 9.64433e-02
 9.20456e-02
 8.76743e-02
 8.33284e-02
 7.90067e-02
 7.47081e-02
 7.04317e-02
 6.61763e-02
 6.19411e-02
 5.77250e-02
 5.35271e-02
 4.93464e-02
 4.51821e-02
 4.10333e-02
 3.68989e-02
 3.27782e-02
 2.86701e-02
 2.45735e-02
 2.04871e-02
 1.64092e-02
 1.23368e-02
 8.26408e-03
 4.17523e-03
 1.00000e-60
)


51
(
 2.32882e-01
 2.26535e-01
 2.20904e-01
 2.15556e-01
 2.10362e-01
 2.05264e-01
 2.00233e-01
 1.95254e-01
 1.90316e-01
 1.85413e-01
 1.80541e-01
 1.75697e-01
 1.70879e-01
 1.66084e-01
 1.61312e-01
 1.56561e-01
 1.51831e-01
 1.47121e-01
 1.42430e-01
 1.37758e-01
 1.33104e-01
 1.28468e-01
 1.23849e-01
 1.19247e-01
 1.14662e-01
 1.10093e-01
 1.05539e-01
 1.01002e-01
 9.64801e-02
 9.19732e-02
 8.74811e-02
 8.30035e-02
 7.85402e-02
 7.40908e-02
 6.96551e-02
 6.52328e-02
 6.08237e-02
 5.64273e-02
 5.20434e-02
 4.76715e-02
 4.33114e-02
 3.89625e-02
 3.46242e-02
 3.02958e-02
 2.59763e-02
 2.16643e-02
 1.73575e-02
 1.30520e-02
 8.74023e-03
 4.40516e-03
 1.00000e-60
)


51
(
 2.32882e-01
 2.28224e-01
 2.23567e-01
 2.18909e-01
 2.14252e-01
 2.09594e-01
 2.04936e-01
 2.00279e-01
 1.95621e-01
 1.90963e-01
 1.86306e-01
 1.81648e-01
 1.76990e-01
 1.72333e-01
 1.67675e-01
 1.63017e-01
 1.58360e-01
 1.53702e-01
 1.49045e-01
 1.44387e-01
 1.39729e-01
 1.35072e-01
 1.30414e-01
 1.25756e-01
 1.21099e-01
 1.16441e-01
 1.11783e-01
 1.07126e-01
 1.02468e-01
 9.78105e-02
 9.31528e-02
 8.84952e-02
 8.38376e-02
 7.91799e-02
 7.45223e-02
 6.98646e-02
 6.52070e-02
 6.05493e-02
 5.58917e-02
 5.12341e-02
 4.65764e-02
 4.19188e-02
 3.72611e-02
 3.26035e-02
 2.79459e-02
 2.32882e-02
 1.86306e-02
 1.39729e-02
 9.31528e-03
 4.65764e-03
 1.00000e-60
)


)


5
(

51
(
 2.32882e-01
 2.17837e-01
 2.15024e-01
 2.08065e-01
 2.04029e-01
 1.98722e-01
 1.70843e-01
 1.66792e-01
 1.62860e-01
 1.58972e-01
 1.55108e-01
 1.51273e-01
 1.47459e-01
 1.43637e-01
 1.39736e-01
 1.35855e-01
 1.31973e-01
 1.28092e-01
 1.24210e-01
 1.20329e-01
 1.16447e-01
 1.12565e-01
 1.08684e-01
 1.04802e-01
 1.00921e-01
 9.70392e-02
 9.31576e-02
 8.92760e-02
 8.53945e-02
 8.15129e-02
 7.76313e-02
 7.37498e-02
 6.98682e-02
 6.59866e-02
 6.21051e-02
 5.82235e-02
 5.43419e-02
 5.04604e-02
 4.65788e-02
 4.26972e-02
 3.88157e-02
 3.49341e-02
 3.10525e-02
 2.71710e-02
 2.32894e-02
 1.94078e-02
 1.55263e-02
 1.16447e-02
 7.76313e-03
 3.88157e-03
 1.00000e-60
)


51
(
 2.32882e-01
 2.23653e-01
 2.16431e-01
 2.09717e-01
 2.03279e-01
 1.97048e-01
 1.90994e-01
 1.85102e-01
 1.79361e-01
 1.73765e-01
 1.68306e-01
 1.62979e-01
 1.57776e-01
 1.52693e-01
 1.47721e-01
 1.42854e-01
 1.38086e-01
 1.33411e-01
 1.28820e-01
 1.24308e-01
 1.19869e-01
 1.15496e-01
 1.11182e-01
 1.06923e-01
 1.02713e-01
 9.85470e-02
 9.44200e-02
 9.03277e-02
 8.62662e-02
 8.22316e-02
 7.82206e-02
 7.42303e-02
 7.02577e-02
 6.63006e-02
 6.23568e-02
 5.84243e-02
 5.45016e-02
 5.05872e-02
 4.66799e-02
 4.27786e-02
 3.88826e-02
 3.49911e-02
 3.11035e-02
 2.72195e-02
 2.33385e-02
 1.94601e-02
 1.55839e-02
 1.17086e-02
 7.83168e-03
 3.94482e-03
 1.00000e-60
)


51
(
 2.32882e-01
 2.24974e-01
 2.18586e-01
 2.12633e-01
 2.06894e-01
 2.01297e-01
 1.95807e-01
 1.90406e-01
 1.85085e-01
 1.79837e-01
 1.74657e-01
 1.69540e-01
 1.64485e-01
 1.59487e-01
 1.54546e-01
 1.49659e-01
 1.44823e-01
 1.40037e-01
 1.35299e-01
 1.30608e-01
 1.25961e-01
 1.21357e-01
 1.16794e-01
 1.12271e-01
 1.07786e-01
 1.03338e-01
 9.89245e-02
 9.45450e-02
 9.01978e-02
 8.58814e-02
 8.15946e-02
 7.73359e-02
 7.31042e-02
 6.88981e-02
 6.47164e-02
 6.05580e-02
 5.64217e-02
 5.23064e-02
 4.82109e-02
 4.41343e-02
 4.00753e-02
 3.60331e-02
 3.20064e-02
 2.79941e-02
 2.39950e-02
 2.00076e-02
 1.60296e-02
 1.20578e-02
 8.08536e-03
 4.09357e-03
 1.00000e-60
)


51
(
 2.32882e-01
 2.26285e-01
 2.20498e-01
 2.15034e-01
 2.09745e-01
 2.04566e-01
 1.99465e-01
 1.94423e-01
 1.89430e-01
 1.84478e-01
 1.79563e-01
 1.74680e-01
 1.69828e-01
 1.65005e-01
 1.60208e-01
 1.55437e-01
 1.50690e-01
 1.45967e-01
 1.41268e-01
 1.36590e-01
 1.31934e-01
 1.27300e-01
 1.22686e-01
 1.18092e-01
 1.13519e-01
 1.08964e-01
 1.04429e-01
 9.99121e-02
 9.54137e-02
 9.09332e-02
 8.64703e-02
 8.20247e-02
 7.75959e-02
 7.31837e-02
 6.87877e-02
 6.44075e-02
 6.00429e-02
 5.56933e-02
 5.13585e-02
 4.70379e-02
 4.27311e-02
 3.84375e-02
 3.41564e-02
 2.98869e-02
 2.56278e-02
 2.13774e-02
 1.71331e-02
 1.28902e-02
 8.63976e-03
 4.36153e-03
 1.00000e-60
)


51
(
 2.32882e-01
 2.28224e-01
 2.23567e-01
 2.18909e-01
 2.14252e-01
 2.09594e-01
 2.04936e-01
 2.00279e-01
 1.95621e-01
 1.90963e-01
 1.86306e-01
 1.81648e-01
 1.76990e-01
 1.72333e-01
 1.67675e-01
 1.63017e-01
 1.58360e-01
 1.53702e-01
 1.49045e-01
 1.44387e-01
 1.39729e-01
 1.35072e-01
 1.30414e-01
 1.25756e-01
 1.21099e-01
 1.16441e-01
 1.11783e-01
 1.07126e-01
 1.02468e-01
 9.78105e-02
 9.31528e-02
 8.84952e-02
 8.38376e-02
 7.91799e-02
 7.45223e-02
 6.98646e-02
 6.52070e-02
 6.05493e-02
 5.58917e-02
 5.12341e-02
 4.65764e-02
 4.19188e-02
 3.72611e-02
 3.26035e-02
 2.79459e-02
 2.32882e-02
 1.86306e-02
 1.39729e-02
 9.31528e-03
 4.65764e-03
 1.00000e-60
)


)


5
(

51
(
 2.32882e-01
 2.16490e-01
 2.12342e-01
 2.04742e-01
 2.00935e-01
 1.96113e-01
 1.65973e-01
 1.62008e-01
 1.58180e-01
 1.54402e-01
 1.50652e-01
 1.46934e-01
 1.43240e-01
 1.39537e-01
 1.35745e-01
 1.31974e-01
 1.28204e-01
 1.24433e-01
 1.20662e-01
 1.16892e-01
 1.13121e-01
 1.09350e-01
 1.05580e-01
 1.01809e-01
 9.80382e-02
 9.42675e-02
 9.04968e-02
 8.67261e-02
 8.29554e-02
 7.91847e-02
 7.54140e-02
 7.16433e-02
 6.78726e-02
 6.41019e-02
 6.03312e-02
 5.65605e-02
 5.27898e-02
 4.90191e-02
 4.52484e-02
 4.14777e-02
 3.77070e-02
 3.39363e-02
 3.01656e-02
 2.63949e-02
 2.26242e-02
 1.88535e-02
 1.50828e-02
 1.13121e-02
 7.54140e-03
 3.77070e-03
 1.00000e-60
)


51
(
 2.32882e-01
 2.22972e-01
 2.15303e-01
 2.08221e-01
 2.01470e-01
 1.94970e-01
 1.88686e-01
 1.82599e-01
 1.76696e-01
 1.70965e-01
 1.65399e-01
 1.59988e-01
 1.54724e-01
 1.49598e-01
 1.44601e-01
 1.39726e-01
 1.34965e-01
 1.30308e-01
 1.25748e-01
 1.21277e-01
 1.16888e-01
 1.12572e-01
 1.08324e-01
 1.04137e-01
 1.00004e-01
 9.59201e-02
 9.18794e-02
 8.78772e-02
 8.39089e-02
 7.99704e-02
 7.60580e-02
 7.21681e-02
 6.82979e-02
 6.44446e-02
 6.06059e-02
 5.67797e-02
 5.29641e-02
 4.91576e-02
 4.53589e-02
 4.15669e-02
 3.77806e-02
 3.39993e-02
 3.02223e-02
 2.64492e-02
 2.26795e-02
 1.89128e-02
 1.51483e-02
 1.13849e-02
 7.61964e-03
 3.84296e-03
 1.00000e-60
)


51
(
 2.32882e-01
 2.24522e-01
 2.17864e-01
 2.11697e-01
 2.05776e-01
 2.00019e-01
 1.94387e-01
 1.88860e-01
 1.83428e-01
 1.78082e-01
 1.72816e-01
 1.67625e-01
 1.62506e-01
 1.57456e-01
 1.52472e-01
 1.47551e-01
 1.42691e-01
 1.37889e-01
 1.33143e-01
 1.28451e-01
 1.23811e-01
 1.19221e-01
 1.14678e-01
 1.10182e-01
 1.05729e-01
 1.01318e-01
 9.69479e-02
 9.26162e-02
 8.83215e-02
 8.40621e-02
 7.98363e-02
 7.56426e-02
 7.14795e-02
 6.73456e-02
 6.32394e-02
 5.91594e-02
 5.51045e-02
 5.10733e-02
 4.70645e-02
 4.30768e-02
 3.91091e-02
 3.51601e-02
 3.12286e-02
 2.73133e-02
 2.34126e-02
 1.95249e-02
 1.56478e-02
 1.17774e-02
 7.90579e-03
 4.01162e-03
 1.00000e-60
)


51
(
 2.32882e-01
 2.26026e-01
 2.20078e-01
 2.14494e-01
 2.09106e-01
 2.03844e-01
 1.98671e-01
 1.93565e-01
 1.88516e-01
 1.83514e-01
 1.78554e-01
 1.73632e-01
 1.68746e-01
 1.63893e-01
 1.59072e-01
 1.54280e-01
 1.49517e-01