/*--------------------------------*- C++ -*----------------------------------*\
| =========                 |                                                 |
| \      /  F ield          | OpenFOAM: The Open Source CFD Toolbox           |
|  \    /   O peration      | Version:  7                                     |
|   \  /    A nd            | Web:      http://www.OpenFOAM.com               |
|    \/     M anipulation   |                                                 |
\*---------------------------------------------------------------------------*/
FoamFile 
{   version     2.0;
    format      ascii;
    class       dictionary;
    location    "constant";
    object      LDMtable;
}
// * * * * * * * * * * * * * * * * * * * * * * * * * * * * * * * * * * * * * //

OH_table
5
(

51
(

5
(

51
(
 1.00000e-60
 1.24517e-31
 6.26779e-23
 7.70371e-24
 1.24975e-22
 2.26088e-19
 9.22876e-31
 1.36068e-30
 2.16719e-30
 3.56267e-30
 5.04223e-30
 6.79856e-30
 6.21954e-30
 5.72568e-30
 4.94132e-30
 3.93795e-30
 3.14440e-30
 2.44962e-30
 2.03576e-30
 1.56938e-30
 1.20929e-30
 9.60212e-31
 8.45984e-31
 3.94223e-31
 1.53073e-31
 1.77065e-31
 1.94388e-31
 1.68414e-31
 2.88284e-32
 1.00000e-60
 7.16045e-32
 2.35477e-31
 2.93548e-31
 2.81020e-31
 2.96103e-31
 6.94837e-31
 1.04729e-30
 1.12882e-30
 1.04345e-30
 8.19950e-31
 5.83814e-31
 3.89160e-31
 3.66199e-32
 6.88200e-33
 2.94630e-33
 2.09402e-34
 1.00000e-60
 1.00000e-60
 1.00000e-60
 8.69323e-34
 1.00000e-60
)


51
(
 1.00000e-60
 3.02049e-19
 6.62261e-19
 9.37495e-19
 1.12388e-18
 1.23372e-18
 1.28154e-18
 1.28109e-18
 1.24449e-18
 1.18203e-18
 1.10221e-18
 1.01194e-18
 9.16646e-19
 8.20519e-19
 7.26667e-19
 6.37305e-19
 5.53919e-19
 4.77409e-19
 4.08212e-19
 3.46417e-19
 2.91855e-19
 2.44171e-19
 2.02893e-19
 1.67474e-19
 1.37335e-19
 1.11891e-19
 9.05746e-20
 7.28459e-20
 5.82068e-20
 4.62035e-20
 3.64296e-20
 2.85256e-20
 2.21778e-20
 1.71151e-20
 1.31057e-20
 9.95327e-21
 7.49280e-21
 5.58710e-21
 4.12284e-21
 3.00721e-21
 2.16482e-21
 1.53488e-21
 1.06877e-21
 7.27926e-22
 4.81985e-22
 3.07262e-22
 1.85445e-22
 1.02540e-22
 4.80420e-23
 1.45411e-23
 1.00000e-60
)


51
(
 1.00000e-60
 9.08901e-20
 2.25627e-19
 3.53398e-19
 4.65416e-19
 5.60134e-19
 6.38019e-19
 7.00214e-19
 7.48093e-19
 7.83081e-19
 8.06579e-19
 8.19922e-19
 8.24367e-19
 8.21081e-19
 8.11146e-19
 7.95550e-19
 7.75199e-19
 7.50913e-19
 7.23436e-19
 6.93435e-19
 6.61509e-19
 6.28190e-19
 5.93951e-19
 5.59206e-19
 5.24318e-19
 4.89603e-19
 4.55330e-19
 4.21729e-19
 3.88995e-19
 3.57286e-19
 3.26733e-19
 2.97437e-19
 2.69478e-19
 2.42910e-19
 2.17773e-19
 1.94086e-19
 1.71855e-19
 1.51073e-19
 1.31723e-19
 1.13777e-19
 9.72006e-20
 8.19543e-20
 6.79932e-20
 5.52697e-20
 4.37359e-20
 3.33463e-20
 2.40630e-20
 1.58682e-20
 8.79857e-21
 3.07820e-21
 1.00000e-60
)


51
(
 1.00000e-60
 2.10555e-20
 6.02089e-20
 1.03712e-19
 1.47050e-19
 1.88397e-19
 2.26936e-19
 2.62305e-19
 2.94364e-19
 3.23091e-19
 3.48535e-19
 3.70780e-19
 3.89937e-19
 4.06129e-19
 4.19487e-19
 4.30144e-19
 4.38239e-19
 4.43905e-19
 4.47278e-19
 4.48489e-19
 4.47666e-19
 4.44936e-19
 4.40422e-19
 4.34240e-19
 4.26508e-19
 4.17334e-19
 4.06828e-19
 3.95091e-19
 3.82226e-19
 3.68326e-19
 3.53487e-19
 3.37795e-19
 3.21339e-19
 3.04201e-19
 2.86460e-19
 2.68196e-19
 2.49482e-19
 2.30393e-19
 2.11001e-19
 1.91377e-19
 1.71594e-19
 1.51728e-19
 1.31859e-19
 1.12077e-19
 9.24905e-20
 7.32405e-20
 5.45291e-20
 3.66838e-20
 2.03138e-20
 6.77610e-21
 1.00000e-60
)


51
(
 1.00000e-60
 1.00000e-60
 1.00000e-60
 1.00000e-60
 1.00000e-60
 1.00000e-60
 1.00000e-60
 1.00000e-60
 1.00000e-60
 1.00000e-60
 1.00000e-60
 1.00000e-60
 1.00000e-60
 1.00000e-60
 1.00000e-60
 1.00000e-60
 1.00000e-60
 1.00000e-60
 1.00000e-60
 1.00000e-60
 1.00000e-60
 1.00000e-60
 1.00000e-60
 1.00000e-60
 1.00000e-60
 1.00000e-60
 1.00000e-60
 1.00000e-60
 1.00000e-60
 1.00000e-60
 1.00000e-60
 1.00000e-60
 1.00000e-60
 1.00000e-60
 1.00000e-60
 1.00000e-60
 1.00000e-60
 1.00000e-60
 1.00000e-60
 1.00000e-60
 1.00000e-60
 1.00000e-60
 1.00000e-60
 1.00000e-60
 1.00000e-60
 1.00000e-60
 1.00000e-60
 1.00000e-60
 1.00000e-60
 1.00000e-60
 1.00000e-60
)


)


5
(

51
(
 1.00000e-60
 5.96460e-21
 1.00213e-08
 3.24201e-08
 5.65324e-10
 4.69334e-11
 4.42992e-14
 3.50353e-13
 2.00004e-12
 8.81274e-12
 2.95077e-11
 7.64716e-11
 1.31604e-10
 1.50403e-10
 1.52570e-11
 1.15333e-11
 9.03121e-12
 7.28532e-12
 6.02129e-12
 5.07611e-12
 4.34890e-12
 3.77509e-12
 3.31540e-12
 2.94095e-12
 2.62615e-12
 2.36162e-12
 2.13458e-12
 1.93822e-12
 1.76643e-12
 1.61592e-12
 1.48118e-12
 1.36198e-12
 1.25422e-12
 1.15587e-12
 1.06602e-12
 9.83200e-13
 9.05637e-13
 8.32321e-13
 7.62301e-13
 6.94663e-13
 6.28521e-13
 5.63018e-13
 4.97356e-13
 4.30875e-13
 3.63175e-13
 2.93139e-13
 2.22046e-13
 1.51114e-13
 8.44607e-14
 3.56585e-14
 1.00000e-60
)


51
(
 1.00000e-60
 5.28576e-10
 1.20287e-09
 1.76727e-09
 2.19881e-09
 2.50498e-09
 2.70042e-09
 2.80144e-09
 2.82413e-09
 2.78359e-09
 2.69352e-09
 2.56616e-09
 2.41215e-09
 2.24059e-09
 2.05912e-09
 1.87401e-09
 1.69027e-09
 1.51180e-09
 1.34153e-09
 1.18153e-09
 1.03316e-09
 8.97185e-10
 7.73887e-10
 6.63173e-10
 5.64656e-10
 4.77736e-10
 4.01665e-10
 3.35599e-10
 2.78647e-10
 2.29905e-10
 1.88482e-10
 1.53521e-10
 1.24216e-10
 9.98176e-11
 7.96419e-11
 6.30715e-11
 4.95559e-11
 3.86088e-11
 2.98055e-11
 2.27780e-11
 1.72106e-11
 1.28349e-11
 9.42416e-12
 6.78889e-12
 4.77186e-12
 3.24376e-12
 2.09935e-12
 1.25415e-12
 6.42291e-13
 2.18684e-13
 1.00000e-60
)


51
(
 1.00000e-60
 1.62838e-10
 4.09302e-10
 6.49124e-10
 8.65595e-10
 1.05481e-09
 1.21654e-09
 1.35185e-09
 1.46239e-09
 1.54996e-09
 1.61647e-09
 1.66379e-09
 1.69375e-09
 1.70813e-09
 1.70859e-09
 1.69672e-09
 1.67402e-09
 1.64188e-09
 1.60161e-09
 1.55441e-09
 1.50142e-09
 1.44365e-09
 1.38206e-09
 1.31751e-09
 1.25079e-09
 1.18261e-09
 1.11361e-09
 1.04436e-09
 9.75374e-10
 9.07103e-10
 8.39938e-10
 7.74223e-10
 7.10251e-10
 6.48271e-10
 5.88488e-10
 5.31072e-10
 4.76158e-10
 4.23846e-10
 3.74212e-10
 3.27303e-10
 2.83147e-10
 2.41749e-10
 2.03102e-10
 1.67186e-10
 1.33974e-10
 1.03445e-10
 7.55973e-11
 5.04893e-11
 2.83558e-11
 1.00516e-11
 1.00000e-60
)


51
(
 1.00000e-60
 3.80252e-11
 1.09188e-10
 1.88864e-10
 2.68903e-10
 3.45948e-10
 4.18454e-10
 4.85690e-10
 5.47323e-10
 6.03243e-10
 6.53462e-10
 6.98068e-10
 7.37196e-10
 7.71009e-10
 7.99688e-10
 8.23425e-10
 8.42418e-10
 8.56869e-10
 8.66979e-10
 8.72950e-10
 8.74982e-10
 8.73273e-10
 8.68016e-10
 8.59402e-10
 8.47617e-10
 8.32844e-10
 8.15262e-10
 7.95045e-10
 7.72362e-10
 7.47379e-10
 7.20258e-10
 6.91156e-10
 6.60227e-10
 6.27621e-10
 5.93484e-10
 5.57961e-10
 5.21194e-10
 4.83323e-10
 4.44488e-10
 4.04831e-10
 3.64499e-10
 3.23645e-10
 2.82437e-10
 2.41067e-10
 1.99770e-10
 1.58854e-10
 1.18766e-10
 8.02344e-11
 4.46185e-11
 1.49487e-11
 1.00000e-60
)


51
(
 1.00000e-60
 1.00000e-60
 1.00000e-60
 1.00000e-60
 1.00000e-60
 1.00000e-60
 1.00000e-60
 1.00000e-60
 1.00000e-60
 1.00000e-60
 1.00000e-60
 1.00000e-60
 1.00000e-60
 1.00000e-60
 1.00000e-60
 1.00000e-60
 1.00000e-60
 1.00000e-60
 1.00000e-60
 1.00000e-60
 1.00000e-60
 1.00000e-60
 1.00000e-60
 1.00000e-60
 1.00000e-60
 1.00000e-60
 1.00000e-60
 1.00000e-60
 1.00000e-60
 1.00000e-60
 1.00000e-60
 1.00000e-60
 1.00000e-60
 1.00000e-60
 1.00000e-60
 1.00000e-60
 1.00000e-60
 1.00000e-60
 1.00000e-60
 1.00000e-60
 1.00000e-60
 1.00000e-60
 1.00000e-60
 1.00000e-60
 1.00000e-60
 1.00000e-60
 1.00000e-60
 1.00000e-60
 1.00000e-60
 1.00000e-60
 1.00000e-60
)


)


5
(

51
(
 1.00000e-60
 1.19292e-20
 1.04949e-07
 3.39550e-07
 5.91799e-09
 4.91802e-10
 8.85984e-14
 7.00706e-13
 4.00007e-12
 1.76255e-11
 5.90155e-11
 1.52943e-10
 2.63208e-10
 3.00807e-10
 3.05140e-11
 2.30667e-11
 1.80624e-11
 1.45706e-11
 1.20426e-11
 1.01522e-11
 8.69779e-12
 7.55018e-12
 6.63080e-12
 5.88191e-12
 5.25231e-12
 4.72323e-12
 4.26916e-12
 3.87644e-12
 3.53286e-12
 3.23185e-12
 2.96236e-12
 2.72397e-12
 2.50843e-12
 2.31174e-12
 2.13204e-12
 1.96640e-12
 1.81127e-12
 1.66464e-12
 1.52460e-12
 1.38933e-12
 1.25704e-12
 1.12604e-12
 9.94711e-13
 8.61751e-13
 7.26350e-13
 5.86277e-13
 4.44091e-13
 3.02228e-13
 1.68921e-13
 7.13171e-14
 1.00000e-60
)


51
(
 1.00000e-60
 5.52714e-09
 1.25760e-08
 1.84735e-08
 2.29799e-08
 2.61738e-08
 2.82089e-08
 2.92561e-08
 2.94839e-08
 2.90505e-08
 2.80997e-08
 2.67595e-08
 2.51413e-08
 2.33406e-08
 2.14373e-08
 1.94970e-08
 1.75722e-08
 1.57036e-08
 1.39219e-08
 1.22485e-08
 1.06978e-08
 9.27760e-09
 7.99079e-09
 6.83628e-09
 5.80993e-09
 4.90536e-09
 4.11463e-09
 3.42884e-09
 2.83857e-09
 2.33427e-09
 1.90655e-09
 1.54638e-09
 1.24526e-09
 9.95302e-10
 7.89312e-10
 6.20798e-10
 4.83972e-10
 3.73729e-10
 2.85614e-10
 2.15773e-10
 1.60903e-10
 1.18200e-10
 8.53031e-11
 6.02409e-11
 4.13833e-11
 2.73939e-11
 1.71885e-11
 9.89842e-12
 4.84503e-12
 1.54484e-12
 1.00000e-60
)


51
(
 1.00000e-60
 1.70154e-09
 4.27657e-09
 6.78178e-09
 9.04260e-09
 1.10183e-08
 1.27065e-08
 1.41185e-08
 1.52713e-08
 1.61842e-08
 1.68768e-08
 1.73689e-08
 1.76797e-08
 1.78276e-08
 1.78302e-08
 1.77040e-08
 1.74647e-08
 1.71270e-08
 1.67045e-08
 1.62098e-08
 1.56546e-08
 1.50498e-08
 1.44053e-08
 1.37300e-08
 1.30323e-08
 1.23195e-08
 1.15984e-08
 1.08748e-08
 1.01543e-08
 9.44139e-09
 8.74025e-09
 8.05445e-09
 7.38703e-09
 6.74059e-09
 6.11727e-09
 5.51883e-09
 4.94666e-09
 4.40182e-09
 3.88506e-09
 3.39688e-09
 2.93754e-09
 2.50711e-09
 2.10547e-09
 1.73242e-09
 1.38766e-09
 1.07096e-09
 7.82259e-10
 5.22164e-10
 2.93071e-10
 1.03792e-10
 1.00000e-60
)


51
(
 1.00000e-60
 3.97202e-10
 1.14052e-09
 1.97271e-09
 2.80864e-09
 3.61324e-09
 4.37039e-09
 5.07244e-09
 5.71593e-09
 6.29971e-09
 6.82391e-09
 7.28947e-09
 7.69779e-09
 8.05058e-09
 8.34973e-09
 8.59726e-09
 8.79523e-09
 8.94576e-09
 9.05097e-09
 9.11295e-09
 9.13381e-09
 9.11560e-09
 9.06036e-09
 8.97007e-09
 8.84670e-09
 8.69215e-09
 8.50829e-09
 8.29693e-09
 8.05986e-09
 7.79881e-09
 7.51546e-09
 7.21147e-09
 6.88844e-09
 6.54793e-09
 6.19149e-09
 5.82061e-09
 5.43678e-09
 5.04148e-09
 4.63616e-09
 4.22230e-09
 3.80144e-09
 3.37517e-09
 2.94526e-09
 2.51371e-09
 2.08296e-09
 1.65623e-09
 1.23818e-09
 8.36400e-10
 4.65071e-10
 1.55779e-10
 1.00000e-60
)


51
(
 1.00000e-60
 1.00000e-60
 1.00000e-60
 1.00000e-60
 1.00000e-60
 1.00000e-60
 1.00000e-60
 1.00000e-60
 1.00000e-60
 1.00000e-60
 1.00000e-60
 1.00000e-60
 1.00000e-60
 1.00000e-60
 1.00000e-60
 1.00000e-60
 1.00000e-60
 1.00000e-60
 1.00000e-60
 1.00000e-60
 1.00000e-60
 1.00000e-60
 1.00000e-60
 1.00000e-60
 1.00000e-60
 1.00000e-60
 1.00000e-60
 1.00000e-60
 1.00000e-60
 1.00000e-60
 1.00000e-60
 1.00000e-60
 1.00000e-60
 1.00000e-60
 1.00000e-60
 1.00000e-60
 1.00000e-60
 1.00000e-60
 1.00000e-60
 1.00000e-60
 1.00000e-60
 1.00000e-60
 1.00000e-60
 1.00000e-60
 1.00000e-60
 1.00000e-60
 1.00000e-60
 1.00000e-60
 1.00000e-60
 1.00000e-60
 1.00000e-60
)


)


5
(

51
(
 1.00000e-60
 1.78938e-20
 2.99274e-07
 9.68352e-07
 1.68690e-08
 1.40354e-09
 1.32898e-13
 1.05106e-12
 6.00011e-12
 2.64382e-11
 8.85232e-11
 2.29415e-10
 3.94812e-10
 4.51210e-10
 4.57710e-11
 3.46000e-11
 2.70936e-11
 2.18560e-11
 1.80639e-11
 1.52283e-11
 1.30467e-11
 1.13253e-11
 9.94620e-12
 8.82286e-12
 7.87846e-12
 7.08485e-12
 6.40374e-12
 5.81467e-12
 5.29930e-12
 4.84777e-12
 4.44354e-12
 4.08595e-12
 3.76265e-12
 3.46761e-12
 3.19806e-12
 2.94960e-12
 2.71691e-12
 2.49696e-12
 2.28690e-12
 2.08399e-12
 1.88556e-12
 1.68905e-12
 1.49207e-12
 1.29263e-12
 1.08953e-12
 8.79416e-13
 6.66137e-13
 4.53342e-13
 2.53382e-13
 1.06976e-13
 1.00000e-60
)


51
(
 1.00000e-60
 1.57573e-08
 3.58522e-08
 5.26642e-08
 6.55096e-08
 7.46130e-08
 8.04123e-08
 8.33949e-08
 8.40416e-08
 8.28032e-08
 8.00899e-08
 7.62665e-08
 7.16509e-08
 6.65152e-08
 6.10872e-08
 5.55540e-08
 5.00654e-08
 4.47375e-08
 3.96574e-08
 3.48868e-08
 3.04660e-08
 2.64175e-08
 2.27496e-08
 1.94592e-08
 1.65343e-08
 1.39567e-08
 1.17038e-08
 9.75021e-09
 8.06901e-09
 6.63295e-09
 5.41523e-09
 4.39009e-09
 3.53326e-09
 2.82226e-09
 2.23656e-09
 1.75762e-09
 1.36895e-09
 1.05599e-09
 8.06014e-10
 6.08050e-10
 4.52677e-10
 3.31899e-10
 2.38987e-10
 1.68327e-10
 1.15273e-10
 7.60222e-11
 4.74867e-11
 2.71955e-11
 1.32166e-11
 4.16774e-12
 1.00000e-60
)


51
(
 1.00000e-60
 4.85054e-09
 1.21910e-08
 1.93323e-08
 2.57768e-08
 3.14085e-08
 3.62204e-08
 4.02450e-08
 4.35308e-08
 4.61323e-08
 4.81060e-08
 4.95081e-08
 5.03934e-08
 5.08143e-08
 5.08210e-08
 5.04607e-08
 4.97780e-08
 4.88147e-08
 4.76096e-08
 4.61989e-08
 4.46159e-08
 4.28914e-08
 4.10537e-08
 3.91286e-08
 3.71394e-08
 3.51074e-08
 3.30516e-08
 3.09891e-08
 2.89351e-08
 2.69030e-08
 2.49045e-08
 2.29497e-08
 2.10475e-08
 1.92050e-08
 1.74286e-08
 1.57231e-08
 1.40925e-08
 1.25398e-08
 1.10673e-08
 9.67627e-09
 8.36747e-09
 7.14110e-09
 5.99684e-09
 4.93408e-09
 3.95199e-09
 3.04986e-09
 2.22759e-09
 1.48684e-09
 8.34451e-10
 2.95494e-10
 1.00000e-60
)


51
(
 1.00000e-60
 1.13225e-09
 3.25112e-09
 5.62332e-09
 8.00614e-09
 1.02996e-08
 1.24579e-08
 1.44590e-08
 1.62933e-08
 1.79573e-08
 1.94514e-08
 2.07784e-08
 2.19422e-08
 2.29478e-08
 2.38004e-08
 2.45059e-08
 2.50701e-08
 2.54990e-08
 2.57988e-08
 2.59754e-08
 2.60347e-08
 2.59827e-08
 2.58251e-08
 2.55677e-08
 2.52159e-08
 2.47753e-08
 2.42511e-08
 2.36486e-08
 2.29728e-08
 2.22286e-08
 2.14209e-08
 2.05543e-08
 1.96335e-08
 1.86629e-08
 1.76469e-08
 1.65897e-08
 1.54957e-08
 1.43689e-08
 1.32136e-08
 1.20340e-08
 1.08344e-08
 9.61949e-09
 8.39416e-09
 7.16417e-09
 5.93647e-09
 4.72024e-09
 3.52877e-09
 2.38370e-09
 1.32541e-09
 4.43945e-10
 1.00000e-60
)


51
(
 1.00000e-60
 1.00000e-60
 1.00000e-60
 1.00000e-60
 1.00000e-60
 1.00000e-60
 1.00000e-60
 1.00000e-60
 1.00000e-60
 1.00000e-60
 1.00000e-60
 1.00000e-60
 1.00000e-60
 1.00000e-60
 1.00000e-60
 1.00000e-60
 1.00000e-60
 1.00000e-60
 1.00000e-60
 1.00000e-60
 1.00000e-60
 1.00000e-60
 1.00000e-60
 1.00000e-60
 1.00000e-60
 1.00000e-60
 1.00000e-60
 1.00000e-60
 1.00000e-60
 1.00000e-60
 1.00000e-60
 1.00000e-60
 1.00000e-60
 1.00000e-60
 1.00000e-60
 1.00000e-60
 1.00000e-60
 1.00000e-60
 1.00000e-60
 1.00000e-60
 1.00000e-60
 1.00000e-60
 1.00000e-60
 1.00000e-60
 1.00000e-60
 1.00000e-60
 1.00000e-60
 1.00000e-60
 1.00000e-60
 1.00000e-60
 1.00000e-60
)


)


5
(

51
(
 1.00000e-60
 2.38584e-20
 5.91989e-07
 1.91565e-06
 3.33548e-08
 2.77859e-09
 1.77197e-13
 1.40141e-12
 8.00014e-12
 3.52510e-11
 1.18031e-10
 3.05886e-10
 5.26416e-10
 6.01614e-10
 6.10280e-11
 4.61333e-11
 3.61248e-11
 2.91413e-11
 2.40851e-11
 2.03044e-11
 1.73956e-11
 1.51004e-11
 1.32616e-11
 1.17638e-11
 1.05046e-11
 9.44646e-12
 8.53832e-12
 7.75289e-12
 7.06573e-12
 6.46369e-12
 5.92472e-12
 5.44794e-12
 5.01686e-12
 4.62348e-12
 4.26408e-12
 3.93280e-12
 3.62255e-12
 3.32928e-12
 3.04920e-12
 2.77865e-12
 2.51408e-12
 2.25207e-12
 1.98942e-12
 1.72350e-12
 1.45270e-12
 1.17255e-12
 8.88182e-13
 6.04457e-13
 3.37843e-13
 1.42634e-13
 1.00000e-60
)


51
(
 1.00000e-60
 3.11645e-08
 7.09076e-08
 1.04157e-07
 1.29562e-07
 1.47565e-07
 1.59033e-07
 1.64931e-07
 1.66208e-07
 1.63757e-07
 1.58389e-07
 1.50825e-07
 1.41695e-07
 1.31536e-07
 1.20800e-07
 1.09855e-07
 9.89988e-08
 8.84608e-08
 7.84130e-08
 6.89775e-08
 6.02340e-08
 5.22272e-08
 4.49732e-08
 3.84658e-08
 3.26816e-08
 2.75845e-08
 2.31297e-08
 1.92668e-08
 1.59428e-08
 1.31036e-08
 1.06963e-08
 8.66992e-09
 6.97639e-09
 5.57127e-09
 4.41392e-09
 3.46770e-09
 2.69995e-09
 2.08188e-09
 1.58835e-09
 1.19761e-09
 8.91045e-10
 6.52845e-10
 4.69698e-10
 3.30500e-10
 2.26070e-10
 1.48884e-10
 9.28425e-11
 5.30594e-11
 2.57157e-11
 8.07451e-12
 1.00000e-60
)


51
(
 1.00000e-60
 9.59306e-09
 2.41105e-08
 3.82339e-08
 5.09793e-08
 6.21169e-08
 7.16332e-08
 7.95925e-08
 8.60905e-08
 9.12351e-08
 9.51382e-08
 9.79108e-08
 9.96612e-08
 1.00493e-07
 1.00506e-07
 9.97929e-08
 9.84424e-08
 9.65368e-08
 9.41531e-08
 9.13628e-08
 8.82318e-08
 8.48210e-08
 8.11864e-08
 7.73787e-08
 7.34445e-08
 6.94256e-08
 6.53598e-08
 6.12807e-08
 5.72185e-08
 5.31996e-08
 4.92472e-08
 4.53814e-08
 4.16194e-08
 3.79758e-08
 3.44626e-08
 3.10899e-08
 2.78654e-08
 2.47950e-08
 2.18831e-08
 1.91324e-08
 1.65443e-08
 1.41193e-08
 1.18567e-08
 9.75530e-09
 7.81345e-09
 6.02976e-09
 4.40399e-09
 2.93945e-09
 1.64965e-09
 5.84148e-10
 1.00000e-60
)


51
(
 1.00000e-60
 2.23927e-09
 6.42975e-09
 1.11212e-08
 1.58338e-08
 2.03696e-08
 2.46379e-08
 2.85956e-08
 3.22231e-08
 3.55139e-08
 3.84689e-08
 4.10932e-08
 4.33948e-08
 4.53834e-08
 4.70695e-08
 4.84647e-08
 4.95804e-08
 5.04287e-08
 5.10215e-08
 5.13706e-08
 5.14879e-08
 5.13850e-08
 5.10733e-08
 5.05641e-08
 4.98683e-08
 4.89969e-08
 4.79601e-08
 4.67685e-08
 4.54319e-08
 4.39601e-08
 4.23627e-08
 4.06489e-08
 3.88278e-08
 3.69082e-08
 3.48988e-08
 3.28081e-08
 3.06445e-08
 2.84161e-08
 2.61313e-08
 2.37985e-08
 2.14262e-08
 1.90235e-08
 1.66002e-08
 1.41678e-08
 1.17399e-08
 9.33464e-09
 6.97840e-09
 4.71392e-09
 2.62108e-09
 8.77918e-10
 1.00000e-60
)


51
(
 1.00000e-60
 1.00000e-60
 1.00000e-60
 1.00000e-60
 1.00000e-60
 1.00000e-60
 1.00000e-60
 1.00000e-60
 1.00000e-60
 1.00000e-60
 1.00000e-60
 1.00000e-60
 1.00000e-60
 1.00000e-60
 1.00000e-60
 1.00000e-60
 1.00000e-60
 1.00000e-60
 1.00000e-60
 1.00000e-60
 1.00000e-60
 1.00000e-60
 1.00000e-60
 1.00000e-60
 1.00000e-60
 1.00000e-60
 1.00000e-60
 1.00000e-60
 1.00000e-60
 1.00000e-60
 1.00000e-60
 1.00000e-60
 1.00000e-60
 1.00000e-60
 1.00000e-60
 1.00000e-60
 1.00000e-60
 1.00000e-60
 1.00000e-60
 1.00000e-60
 1.00000e-60
 1.00000e-60
 1.00000e-60
 1.00000e-60
 1.00000e-60
 1.00000e-60
 1.00000e-60
 1.00000e-60
 1.00000e-60
 1.00000e-60
 1.00000e-60
)


)


5
(

51
(
 1.00000e-60
 1.48794e-19
 9.82087e-07
 3.17828e-06
 5.53117e-08
 4.61338e-09
 2.21496e-13
 1.75177e-12
 1.00002e-11
 4.40637e-11
 1.47539e-10
 3.82358e-10
 6.58020e-10
 7.52017e-10
 7.62850e-11
 5.76666e-11
 4.51560e-11
 3.64266e-11
 3.01064e-11
 2.53806e-11
 2.17445e-11
 1.88755e-11
 1.65770e-11
 1.47048e-11
 1.31308e-11
 1.18081e-11
 1.06729e-11
 9.69111e-12
 8.83216e-12
 8.07962e-12
 7.40590e-12
 6.80992e-12
 6.27108e-12
 5.77935e-12
 5.33010e-12
 4.91600e-12
 4.52818e-12
 4.16161e-12
 3.81150e-12
 3.47331e-12
 3.14260e-12
 2.81509e-12
 2.48678e-12
 2.15438e-12
 1.81588e-12
 1.46569e-12
 1.11023e-12
 7.55571e-13
 4.22303e-13
 1.78293e-13
 1.00000e-60
)


51
(
 1.00000e-60
 5.16942e-08
 1.17618e-07
 1.72771e-07
 2.14910e-07
 2.44772e-07
 2.63795e-07
 2.73576e-07
 2.75694e-07
 2.71627e-07
 2.62721e-07
 2.50174e-07
 2.35028e-07
 2.18176e-07
 2.00365e-07
 1.82210e-07
 1.64201e-07
 1.46721e-07
 1.30053e-07
 1.14402e-07
 9.98981e-08
 8.66167e-08
 7.45842e-08
 6.37903e-08
 5.41960e-08
 4.57416e-08
 3.83527e-08
 3.19458e-08
 2.64327e-08
 2.17240e-08
 1.77317e-08
 1.43712e-08
 1.15628e-08
 9.23290e-09
 7.31394e-09
 5.74517e-09
 4.47243e-09
 3.44792e-09
 2.62994e-09
 1.98244e-09
 1.47452e-09
 1.07995e-09
 7.76656e-10
 5.46215e-10
 3.73400e-10
 2.45736e-10
 1.53104e-10
 8.74041e-11
 4.23007e-11
 1.32523e-11
 1.00000e-60
)


51
(
 1.00000e-60
 1.59124e-08
 3.99928e-08
 6.34199e-08
 8.45609e-08
 1.03035e-07
 1.18820e-07
 1.32022e-07
 1.42800e-07
 1.51333e-07
 1.57807e-07
 1.62406e-07
 1.65309e-07
 1.66689e-07
 1.66710e-07
 1.65527e-07
 1.63287e-07
 1.60125e-07
 1.56171e-07
 1.51543e-07
 1.46349e-07
 1.40691e-07
 1.34662e-07
 1.28346e-07
 1.21820e-07
 1.15154e-07
 1.08409e-07
 1.01643e-07
 9.49053e-08
 8.82390e-08
 8.16830e-08
 7.52707e-08
 6.90307e-08
 6.29870e-08
 5.71598e-08
 5.15655e-08
 4.62171e-08
 4.11244e-08
 3.62945e-08
 3.17321e-08
 2.74395e-08
 2.34173e-08
 1.96646e-08
 1.61792e-08
 1.29586e-08
 1.00002e-08
 7.30386e-09
 4.87493e-09
 2.73582e-09
 9.68749e-10
 1.00000e-60
)


51
(
 1.00000e-60
 3.71433e-09
 1.06652e-08
 1.84471e-08
 2.62638e-08
 3.37875e-08
 4.08675e-08
 4.74321e-08
 5.34491e-08
 5.89076e-08
 6.38090e-08
 6.81620e-08
 7.19797e-08
 7.52781e-08
 7.80750e-08
 8.03890e-08
 8.22397e-08
 8.36468e-08
 8.46300e-08
 8.52091e-08
 8.54036e-08
 8.52328e-08
 8.47157e-08
 8.38710e-08
 8.27170e-08
 8.12714e-08
 7.95517e-08
 7.75751e-08
 7.53580e-08
 7.29167e-08
 7.02670e-08
 6.74243e-08
 6.44036e-08
 6.12195e-08
 5.78865e-08
 5.44187e-08
 5.08297e-08
 4.71335e-08
 4.33438e-08
 3.94743e-08
 3.55393e-08
 3.15539e-08
 2.75345e-08
 2.34998e-08
 1.94727e-08
 1.54832e-08
 1.15749e-08
 7.81886e-09
 4.34751e-09
 1.45617e-09
 1.00000e-60
)


51
(
 1.00000e-60
 1.00000e-60
 1.00000e-60
 1.00000e-60
 1.00000e-60
 1.00000e-60
 1.00000e-60
 1.00000e-60
 1.00000e-60
 1.00000e-60
 1.00000e-60
 1.00000e-60
 1.00000e-60
 1.00000e-60
 1.00000e-60
 1.00000e-60
 1.00000e-60
 1.00000e-60
 1.00000e-60
 1.00000e-60
 1.00000e-60
 1.00000e-60
 1.00000e-60
 1.00000e-60
 1.00000e-60
 1.00000e-60
 1.00000e-60
 1.00000e-60
 1.00000e-60
 1.00000e-60
 1.00000e-60
 1.00000e-60
 1.00000e-60
 1.00000e-60
 1.00000e-60
 1.00000e-60
 1.00000e-60
 1.00000e-60
 1.00000e-60
 1.00000e-60
 1.00000e-60
 1.00000e-60
 1.00000e-60
 1.00000e-60
 1.00000e-60
 1.00000e-60
 1.00000e-60
 1.00000e-60
 1.00000e-60
 1.00000e-60
 1.00000e-60
)


)


5
(

51
(
 1.00000e-60
 1.95695e-18
 1.46856e-06
 4.75306e-06
 8.26760e-08
 6.90435e-09
 2.65795e-13
 2.10212e-12
 1.20002e-11
 5.28764e-11
 1.77046e-10
 4.58830e-10
 7.89624e-10
 9.02420e-10
 9.15420e-11
 6.92000e-11
 5.41872e-11
 4.37119e-11
 3.61277e-11
 3.04567e-11
 2.60934e-11
 2.26505e-11
 1.98924e-11
 1.76457e-11
 1.57569e-11
 1.41697e-11
 1.28075e-11
 1.16293e-11
 1.05986e-11
 9.69554e-12
 8.88709e-12
 8.17190e-12
 7.52529e-12
 6.93523e-12
 6.39612e-12
 5.89920e-12
 5.43382e-12
 4.99393e-12
 4.57381e-12
 4.16798e-12
 3.77112e-12
 3.37811e-12
 2.98413e-12
 2.58525e-12
 2.17905e-12
 1.75883e-12
 1.33227e-12
 9.06685e-13
 5.06764e-13
 2.13951e-13
 1.00000e-60
)


51
(
 1.00000e-60
 7.72920e-08
 1.75860e-07
 2.58323e-07
 3.21329e-07
 3.65978e-07
 3.94419e-07
 4.09044e-07
 4.12210e-07
 4.06128e-07
 3.92812e-07
 3.74051e-07
 3.51404e-07
 3.26206e-07
 2.99575e-07
 2.72429e-07
 2.45502e-07
 2.19364e-07
 1.94443e-07
 1.71041e-07
 1.49355e-07
 1.29496e-07
 1.11505e-07
 9.53665e-08
 8.10215e-08
 6.83808e-08
 5.73333e-08
 4.77542e-08
 3.95116e-08
 3.24718e-08
 2.65031e-08
 2.14791e-08
 1.72808e-08
 1.37977e-08
 1.09292e-08
 8.58421e-09
 6.68183e-09
 5.15060e-09
 3.92815e-09
 2.96055e-09
 2.20162e-09
 1.61214e-09
 1.15908e-09
 8.14924e-10
 5.56893e-10
 3.66334e-10
 2.28121e-10
 1.30143e-10
 6.29304e-11
 1.96882e-11
 1.00000e-60
)


51
(
 1.00000e-60
 2.37916e-08
 5.97960e-08
 9.48233e-08
 1.26433e-07
 1.54055e-07
 1.77655e-07
 1.97395e-07
 2.13510e-07
 2.26268e-07
 2.35948e-07
 2.42823e-07
 2.47164e-07
 2.49227e-07
 2.49258e-07
 2.47489e-07
 2.44139e-07
 2.39412e-07
 2.33500e-07
 2.26579e-07
 2.18813e-07
 2.10354e-07
 2.01339e-07
 1.91896e-07
 1.82138e-07
 1.72171e-07
 1.62087e-07
 1.51971e-07
 1.41896e-07
 1.31929e-07
 1.22127e-07
 1.12539e-07
 1.03209e-07
 9.41729e-08
 8.54604e-08
 7.70961e-08
 6.90994e-08
 6.14851e-08
 5.42638e-08
 4.74423e-08
 4.10244e-08
 3.50108e-08
 2.94001e-08
 2.41891e-08
 1.93738e-08
 1.49509e-08
 1.09196e-08
 7.28820e-09
 4.09013e-09
 1.44829e-09
 1.00000e-60
)


51
(
 1.00000e-60
 5.55352e-09
 1.59462e-08
 2.75814e-08
 3.92687e-08
 5.05178e-08
 6.11035e-08
 7.09186e-08
 7.99150e-08
 8.80764e-08
 9.54048e-08
 1.01913e-07
 1.07621e-07
 1.12553e-07
 1.16735e-07
 1.20194e-07
 1.22962e-07
 1.25065e-07
 1.26535e-07
 1.27401e-07
 1.27692e-07
 1.27436e-07
 1.26663e-07
 1.25400e-07
 1.23675e-07
 1.21513e-07
 1.18942e-07
 1.15987e-07
 1.12672e-07
 1.09022e-07
 1.05060e-07
 1.00810e-07
 9.62932e-08
 9.15326e-08
 8.65492e-08
 8.13642e-08
 7.59982e-08
 7.04718e-08
 6.48055e-08
 5.90200e-08
 5.31366e-08
 4.71778e-08
 4.11682e-08
 3.51357e-08
 2.91145e-08
 2.31496e-08
 1.73062e-08
 1.16903e-08
 6.50015e-09
 2.17718e-09
 1.00000e-60
)


51
(
 1.00000e-60
 1.00000e-60
 1.00000e-60
 1.00000e-60
 1.00000e-60
 1.00000e-60
 1.00000e-60
 1.00000e-60
 1.00000e-60
 1.00000e-60
 1.00000e-60
 1.00000e-60
 1.00000e-60
 1.00000e-60
 1.00000e-60
 1.00000e-60
 1.00000e-60
 1.00000e-60
 1.00000e-60
 1.00000e-60
 1.00000e-60
 1.00000e-60
 1.00000e-60
 1.00000e-60
 1.00000e-60
 1.00000e-60
 1.00000e-60
 1.00000e-60
 1.00000e-60
 1.00000e-60
 1.00000e-60
 1.00000e-60
 1.00000e-60
 1.00000e-60
 1.00000e-60
 1.00000e-60
 1.00000e-60
 1.00000e-60
 1.00000e-60
 1.00000e-60
 1.00000e-60
 1.00000e-60
 1.00000e-60
 1.00000e-60
 1.00000e-60
 1.00000e-60
 1.00000e-60
 1.00000e-60
 1.00000e-60
 1.00000e-60
 1.00000e-60
)


)


5
(

51
(
 1.00000e-60
 9.72587e-18
 2.05041e-06
 6.63682e-06
 1.15384e-07
 9.64794e-09
 3.10094e-13
 2.45247e-12
 1.40002e-11
 6.16892e-11
 2.06554e-10
 5.35301e-10
 9.21228e-10
 1.05282e-09
 1.06799e-10
 8.07333e-11
 6.32184e-11
 5.09972e-11
 4.21490e-11
 3.55328e-11
 3.04423e-11
 2.64256e-11
 2.32078e-11
 2.05867e-11
 1.83831e-11
 1.65313e-11
 1.49421e-11
 1.35676e-11
 1.23650e-11
 1.13115e-11
 1.03683e-11
 9.53389e-12
 8.77951e-12
 8.09110e-12
 7.46214e-12
 6.88240e-12
 6.33946e-12
 5.82625e-12
 5.33611e-12
 4.86264e-12
 4.39964e-12
 3.94113e-12
 3.48149e-12
 3.01613e-12
 2.54223e-12
 2.05197e-12
 1.55432e-12
 1.05780e-12
 5.91225e-13
 2.49610e-13
 1.00000e-60
)


51
(
 1.00000e-60
 1.07903e-07
 2.45509e-07
 3.60632e-07
 4.48591e-07
 5.10924e-07
 5.50630e-07
 5.71046e-07
 5.75466e-07
 5.66976e-07
 5.48386e-07
 5.22194e-07
 4.90577e-07
 4.55399e-07
 4.18220e-07
 3.80322e-07
 3.42729e-07
 3.06239e-07
 2.71447e-07
 2.38775e-07
 2.08500e-07
 1.80776e-07
 1.55660e-07
 1.33129e-07
 1.13102e-07
 9.54548e-08
 8.00320e-08
 6.66592e-08
 5.51523e-08
 4.53246e-08
 3.69923e-08
 2.99790e-08
 2.41183e-08
 1.92563e-08
 1.52521e-08
 1.19789e-08
 9.32363e-09
 7.18643e-09
 5.48030e-09
 4.12994e-09
 3.07086e-09
 2.24831e-09
 1.61620e-09
 1.13608e-09
 7.76175e-10
 5.10434e-10
 3.17741e-10
 1.81191e-10
 8.75634e-11
 2.73694e-11
 1.00000e-60
)


51
(
 1.00000e-60
 3.32141e-08
 8.34778e-08
 1.32377e-07
 1.76505e-07
 2.15067e-07
 2.48015e-07
 2.75572e-07
 2.98069e-07
 3.15880e-07
 3.29393e-07
 3.38992e-07
 3.45051e-07
 3.47931e-07
 3.47974e-07
 3.45505e-07
 3.40828e-07
 3.34230e-07
 3.25976e-07
 3.16314e-07
 3.05472e-07
 2.93663e-07
 2.81078e-07
 2.67894e-07
 2.54272e-07
 2.40357e-07
 2.26279e-07
 2.12156e-07
 1.98091e-07
 1.84177e-07
 1.70492e-07
 1.57108e-07
 1.44083e-07
 1.31468e-07
 1.19305e-07
 1.07628e-07
 9.64640e-08
 8.58342e-08
 7.57530e-08
 6.62300e-08
 5.72704e-08
 4.88752e-08
 4.10425e-08
 3.37679e-08
 2.70458e-08
 2.08713e-08
 1.52436e-08
 1.01742e-08
 5.70972e-09
 2.02176e-09
 1.00000e-60
)


51
(
 1.00000e-60
 7.75294e-09
 2.22615e-08
 3.85047e-08
 5.48207e-08
 7.05249e-08
 8.53030e-08
 9.90052e-08
 1.11565e-07
 1.22958e-07
 1.33189e-07
 1.42275e-07
 1.50244e-07
 1.57128e-07
 1.62966e-07
 1.67796e-07
 1.71659e-07
 1.74596e-07
 1.76648e-07
 1.77857e-07
 1.78263e-07
 1.77906e-07
 1.76827e-07
 1.75064e-07
 1.72655e-07
 1.69638e-07
 1.66048e-07
 1.61922e-07
 1.57294e-07
 1.52199e-07
 1.46668e-07
 1.40734e-07
 1.34429e-07
 1.27783e-07
 1.20826e-07
 1.13587e-07
 1.06096e-07
 9.83812e-08
 9.04708e-08
 8.23941e-08
 7.41807e-08
 6.58620e-08
 5.74723e-08
 4.90507e-08
 4.06449e-08
 3.23177e-08
 2.41600e-08
 1.63201e-08
 9.07443e-09
 3.03941e-09
 1.00000e-60
)


51
(
 1.00000e-60
 1.00000e-60
 1.00000e-60
 1.00000e-60
 1.00000e-60
 1.00000e-60
 1.00000e-60
 1.00000e-60
 1.00000e-60
 1.00000e-60
 1.00000e-60
 1.00000e-60
 1.00000e-60
 1.00000e-60
 1.00000e-60
 1.00000e-60
 1.00000e-60
 1.00000e-60
 1.00000e-60
 1.00000e-60
 1.00000e-60
 1.00000e-60
 1.00000e-60
 1.00000e-60
 1.00000e-60
 1.00000e-60
 1.00000e-60
 1.00000e-60
 1.00000e-60
 1.00000e-60
 1.00000e-60
 1.00000e-60
 1.00000e-60
 1.00000e-60
 1.00000e-60
 1.00000e-60
 1.00000e-60
 1.00000e-60
 1.00000e-60
 1.00000e-60
 1.00000e-60
 1.00000e-60
 1.00000e-60
 1.00000e-60
 1.00000e-60
 1.00000e-60
 1.00000e-60
 1.00000e-60
 1.00000e-60
 1.00000e-60
 1.00000e-60
)


)


5
(

51
(
 1.00000e-60
 4.39795e-17
 2.72661e-06
 8.82638e-06
 1.53373e-07
 1.28406e-08
 3.54394e-13
 2.80282e-12
 1.60003e-11
 7.05019e-11
 2.36062e-10
 6.11773e-10
 1.05283e-09
 1.20323e-09
 1.22056e-10
 9.22666e-11
 7.22496e-11
 5.82826e-11
 4.81703e-11
 4.06089e-11
 3.47912e-11
 3.02007e-11
 2.65232e-11
 2.35276e-11
 2.10092e-11
 1.88929e-11
 1.70766e-11
 1.55058e-11
 1.41315e-11
 1.29274e-11
 1.18494e-11
 1.08959e-11
 1.00337e-11
 9.24697e-12
 8.52817e-12
 7.86560e-12
 7.24509e-12
 6.65857e-12
 6.09841e-12
 5.55730e-12
 5.02816e-12
 4.50415e-12
 3.97884e-12
 3.44700e-12
 2.90540e-12
 2.34511e-12
 1.77636e-12
 1.20891e-12
 6.75685e-13
 2.85268e-13
 1.00000e-60
)


51
(
 1.00000e-60
 1.43473e-07
 3.26441e-07
 4.79515e-07
 5.96472e-07
 6.79353e-07
 7.32149e-07
 7.59297e-07
 7.65174e-07
 7.53886e-07
 7.29168e-07
 6.94341e-07
 6.52301e-07
 6.05526e-07
 5.56091e-07
 5.05698e-07
 4.55712e-07
 4.07192e-07
 3.60930e-07
 3.17487e-07
 2.77231e-07
 2.40367e-07
 2.06969e-07
 1.77010e-07
 1.50381e-07
 1.26917e-07
 1.06409e-07
 8.86279e-08
 7.33276e-08
 6.02602e-08
 4.91813e-08
 3.98561e-08
 3.20638e-08
 2.55992e-08
 2.02754e-08
 1.59235e-08
 1.23933e-08
 9.55191e-09
 7.28373e-09
 5.48859e-09
 4.08075e-09
 2.98738e-09
 2.14722e-09
 1.50914e-09
 1.03087e-09
 6.77791e-10
 4.21812e-10
 2.40462e-10
 1.16158e-10
 3.62830e-11
 1.00000e-60
)


51
(
 1.00000e-60
 4.41631e-08
 1.10996e-07
 1.76015e-07
 2.34690e-07
 2.85964e-07
 3.29773e-07
 3.66414e-07
 3.96327e-07
 4.20011e-07
 4.37978e-07
 4.50741e-07
 4.58798e-07
 4.62627e-07
 4.62685e-07
 4.59401e-07
 4.53183e-07
 4.44409e-07
 4.33434e-07
 4.20587e-07
 4.06172e-07
 3.90469e-07
 3.73735e-07
 3.56205e-07
 3.38093e-07
 3.19591e-07
 3.00872e-07
 2.82093e-07
 2.63392e-07
 2.44890e-07
 2.26695e-07
 2.08898e-07
 1.91579e-07
 1.74805e-07
 1.58633e-07
 1.43107e-07
 1.28263e-07
 1.14129e-07
 1.00724e-07
 8.80621e-08
 7.61489e-08
 6.49863e-08
 5.45716e-08
 4.48989e-08
 3.59609e-08
 2.77510e-08
 2.02683e-08
 1.35278e-08
 7.59175e-09
 2.68816e-09
 1.00000e-60
)


51
(
 1.00000e-60
 1.03087e-08
 2.96000e-08
 5.11977e-08
 7.28921e-08
 9.37732e-08
 1.13423e-07
 1.31642e-07
 1.48342e-07
 1.63491e-07
 1.77094e-07
 1.89176e-07
 1.99771e-07
 2.08925e-07
 2.16688e-07
 2.23110e-07
 2.28246e-07