/*--------------------------------*- C++ -*----------------------------------*\
| =========                 |                                                 |
| \      /  F ield          | OpenFOAM: The Open Source CFD Toolbox           |
|  \    /   O peration      | Version:  7                                     |
|   \  /    A nd            | Web:      http://www.OpenFOAM.com               |
|    \/     M anipulation   |                                                 |
\*---------------------------------------------------------------------------*/
FoamFile 
{   version     2.0;
    format      ascii;
    class       dictionary;
    location    "constant";
    object      LDMtable;
}
// * * * * * * * * * * * * * * * * * * * * * * * * * * * * * * * * * * * * * //

psi_table
5
(

51
(

5
(

51
(
 1.16504e-05
 1.14695e-05
 1.14445e-05
 1.12611e-05
 1.10910e-05
 1.09329e-05
 1.06315e-05
 1.04787e-05
 1.03302e-05
 1.01860e-05
 1.00456e-05
 9.90915e-06
 9.77631e-06
 9.64697e-06
 9.52101e-06
 9.39833e-06
 9.27874e-06
 9.16218e-06
 9.04848e-06
 8.93760e-06
 8.82940e-06
 8.72377e-06
 8.62064e-06
 8.51993e-06
 8.42155e-06
 8.32541e-06
 8.23144e-06
 8.13956e-06
 8.04971e-06
 7.96184e-06
 7.87586e-06
 7.79171e-06
 7.70934e-06
 7.62870e-06
 7.54972e-06
 7.47237e-06
 7.39658e-06
 7.32232e-06
 7.24953e-06
 7.17818e-06
 7.10821e-06
 7.03958e-06
 6.97230e-06
 6.90627e-06
 6.84148e-06
 6.77790e-06
 6.71551e-06
 6.65423e-06
 6.59406e-06
 6.53498e-06
 6.47689e-06
)


51
(
 1.16504e-05
 1.15010e-05
 1.13588e-05
 1.12177e-05
 1.10773e-05
 1.09376e-05
 1.07987e-05
 1.06610e-05
 1.05247e-05
 1.03898e-05
 1.02567e-05
 1.01255e-05
 9.99617e-06
 9.86894e-06
 9.74383e-06
 9.62089e-06
 9.50013e-06
 9.38158e-06
 9.26522e-06
 9.15105e-06
 9.03903e-06
 8.92914e-06
 8.82134e-06
 8.71559e-06
 8.61185e-06
 8.51006e-06
 8.41019e-06
 8.31218e-06
 8.21598e-06
 8.12156e-06
 8.02885e-06
 7.93783e-06
 7.84843e-06
 7.76063e-06
 7.67438e-06
 7.58964e-06
 7.50638e-06
 7.42456e-06
 7.34414e-06
 7.26511e-06
 7.18741e-06
 7.11104e-06
 7.03595e-06
 6.96213e-06
 6.88955e-06
 6.81817e-06
 6.74798e-06
 6.67892e-06
 6.61092e-06
 6.54382e-06
 6.47689e-06
)


51
(
 1.16504e-05
 1.15139e-05
 1.13830e-05
 1.12540e-05
 1.11264e-05
 1.09999e-05
 1.08745e-05
 1.07502e-05
 1.06269e-05
 1.05047e-05
 1.03835e-05
 1.02635e-05
 1.01446e-05
 1.00269e-05
 9.91026e-06
 9.79480e-06
 9.68050e-06
 9.56738e-06
 9.45544e-06
 9.34469e-06
 9.23512e-06
 9.12675e-06
 9.01957e-06
 8.91359e-06
 8.80880e-06
 8.70519e-06
 8.60278e-06
 8.50154e-06
 8.40148e-06
 8.30260e-06
 8.20487e-06
 8.10831e-06
 8.01289e-06
 7.91861e-06
 7.82546e-06
 7.73344e-06
 7.64252e-06
 7.55271e-06
 7.46398e-06
 7.37634e-06
 7.28976e-06
 7.20423e-06
 7.11974e-06
 7.03628e-06
 6.95383e-06
 6.87236e-06
 6.79185e-06
 6.71226e-06
 6.63349e-06
 6.55531e-06
 6.47689e-06
)


51
(
 1.16504e-05
 1.15293e-05
 1.14112e-05
 1.12945e-05
 1.11787e-05
 1.10638e-05
 1.09495e-05
 1.08358e-05
 1.07228e-05
 1.06103e-05
 1.04984e-05
 1.03871e-05
 1.02764e-05
 1.01662e-05
 1.00565e-05
 9.94747e-06
 9.83896e-06
 9.73101e-06
 9.62361e-06
 9.51677e-06
 9.41049e-06
 9.30477e-06
 9.19960e-06
 9.09500e-06
 8.99095e-06
 8.88745e-06
 8.78452e-06
 8.68215e-06
 8.58033e-06
 8.47907e-06
 8.37837e-06
 8.27822e-06
 8.17863e-06
 8.07960e-06
 7.98112e-06
 7.88319e-06
 7.78582e-06
 7.68900e-06
 7.59273e-06
 7.49700e-06
 7.40182e-06
 7.30718e-06
 7.21308e-06
 7.11950e-06
 7.02645e-06
 6.93390e-06
 6.84184e-06
 6.75023e-06
 6.65900e-06
 6.56797e-06
 6.47689e-06
)


51
(
 1.16504e-05
 1.15469e-05
 1.14435e-05
 1.13400e-05
 1.12365e-05
 1.11331e-05
 1.10296e-05
 1.09261e-05
 1.08226e-05
 1.07192e-05
 1.06157e-05
 1.05122e-05
 1.04088e-05
 1.03053e-05
 1.02018e-05
 1.00984e-05
 9.99489e-06
 9.89142e-06
 9.78795e-06
 9.68448e-06
 9.58100e-06
 9.47753e-06
 9.37406e-06
 9.27059e-06
 9.16712e-06
 9.06365e-06
 8.96018e-06
 8.85671e-06
 8.75324e-06
 8.64977e-06
 8.54630e-06
 8.44283e-06
 8.33936e-06
 8.23589e-06
 8.13242e-06
 8.02895e-06
 7.92548e-06
 7.82201e-06
 7.71854e-06
 7.61507e-06
 7.51160e-06
 7.40813e-06
 7.30466e-06
 7.20119e-06
 7.09772e-06
 6.99425e-06
 6.89078e-06
 6.78731e-06
 6.68383e-06
 6.58036e-06
 6.47689e-06
)


)


5
(

51
(
 1.16504e-05
 1.09794e-05
 1.14364e-05
 1.12526e-05
 1.10648e-05
 1.05639e-05
 9.97583e-06
 9.90586e-06
 9.82699e-06
 9.74108e-06
 9.64976e-06
 9.55423e-06
 9.45437e-06
 9.34989e-06
 9.23208e-06
 9.11737e-06
 9.00560e-06
 8.89671e-06
 8.79056e-06
 8.68712e-06
 8.58625e-06
 8.48786e-06
 8.39189e-06
 8.29827e-06
 8.20692e-06
 8.11777e-06
 8.03074e-06
 7.94579e-06
 7.86286e-06
 7.78190e-06
 7.70285e-06
 7.62567e-06
 7.55031e-06
 7.47673e-06
 7.40489e-06
 7.33478e-06
 7.26635e-06
 7.19956e-06
 7.13441e-06
 7.07087e-06
 7.00892e-06
 6.94855e-06
 6.88979e-06
 6.83256e-06
 6.77685e-06
 6.72287e-06
 6.67048e-06
 6.61954e-06
 6.57042e-06
 6.52296e-06
 6.47689e-06
)


51
(
 1.16504e-05
 1.13202e-05
 1.11258e-05
 1.09591e-05
 1.08036e-05
 1.06542e-05
 1.05091e-05
 1.03675e-05
 1.02289e-05
 1.00934e-05
 9.96062e-06
 9.83071e-06
 9.70363e-06
 9.57937e-06
 9.45790e-06
 9.33922e-06
 9.22328e-06
 9.11005e-06
 8.99946e-06
 8.89146e-06
 8.78598e-06
 8.68294e-06
 8.58226e-06
 8.48387e-06
 8.38769e-06
 8.29363e-06
 8.20162e-06
 8.11159e-06
 8.02346e-06
 7.93718e-06
 7.85268e-06
 7.76990e-06
 7.68879e-06
 7.60931e-06
 7.53141e-06
 7.45506e-06
 7.38022e-06
 7.30686e-06
 7.23495e-06
 7.16447e-06
 7.09541e-06
 7.02773e-06
 6.96144e-06
 6.89651e-06
 6.83292e-06
 6.77068e-06
 6.70974e-06
 6.65008e-06
 6.59164e-06
 6.53419e-06
 6.47689e-06
)


51
(
 1.16504e-05
 1.13720e-05
 1.11923e-05
 1.10387e-05
 1.08964e-05
 1.07607e-05
 1.06292e-05
 1.05010e-05
 1.03755e-05
 1.02523e-05
 1.01311e-05
 1.00118e-05
 9.89432e-06
 9.77857e-06
 9.66449e-06
 9.55203e-06
 9.44116e-06
 9.33184e-06
 9.22406e-06
 9.11779e-06
 9.01301e-06
 8.90970e-06
 8.80784e-06
 8.70742e-06
 8.60843e-06
 8.51084e-06
 8.41463e-06
 8.31980e-06
 8.22633e-06
 8.13421e-06
 8.04341e-06
 7.95392e-06
 7.86572e-06
 7.77881e-06
 7.69317e-06
 7.60877e-06
 7.52561e-06
 7.44366e-06
 7.36292e-06
 7.28337e-06
 7.20498e-06
 7.12775e-06
 7.05166e-06
 6.97668e-06
 6.90280e-06
 6.82998e-06
 6.75818e-06
 6.68733e-06
 6.61729e-06
 6.54766e-06
 6.47689e-06
)


51
(
 1.16504e-05
 1.14370e-05
 1.12748e-05
 1.11327e-05
 1.10010e-05
 1.08756e-05
 1.07544e-05
 1.06362e-05
 1.05204e-05
 1.04064e-05
 1.02941e-05
 1.01831e-05
 1.00734e-05
 9.96478e-06
 9.85720e-06
 9.75060e-06
 9.64492e-06
 9.54012e-06
 9.43618e-06
 9.33306e-06
 9.23074e-06
 9.12921e-06
 9.02845e-06
 8.92844e-06
 8.82918e-06
 8.73065e-06
 8.63284e-06
 8.53575e-06
 8.43936e-06
 8.34368e-06
 8.24869e-06
 8.15439e-06
 8.06077e-06
 7.96782e-06
 7.87555e-06
 7.78394e-06
 7.69299e-06
 7.60269e-06
 7.51303e-06
 7.42401e-06
 7.33562e-06
 7.24784e-06
 7.16067e-06
 7.07408e-06
 6.98805e-06
 6.90254e-06
 6.81748e-06
 6.73278e-06
 6.64821e-06
 6.56330e-06
 6.47689e-06
)


51
(
 1.16504e-05
 1.15469e-05
 1.14435e-05
 1.13400e-05
 1.12365e-05
 1.11331e-05
 1.10296e-05
 1.09261e-05
 1.08226e-05
 1.07192e-05
 1.06157e-05
 1.05122e-05
 1.04088e-05
 1.03053e-05
 1.02018e-05
 1.00984e-05
 9.99489e-06
 9.89142e-06
 9.78795e-06
 9.68448e-06
 9.58100e-06
 9.47753e-06
 9.37406e-06
 9.27059e-06
 9.16712e-06
 9.06365e-06
 8.96018e-06
 8.85671e-06
 8.75324e-06
 8.64977e-06
 8.54630e-06
 8.44283e-06
 8.33936e-06
 8.23589e-06
 8.13242e-06
 8.02895e-06
 7.92548e-06
 7.82201e-06
 7.71854e-06
 7.61507e-06
 7.51160e-06
 7.40813e-06
 7.30466e-06
 7.20119e-06
 7.09772e-06
 6.99425e-06
 6.89078e-06
 6.78731e-06
 6.68383e-06
 6.58036e-06
 6.47689e-06
)


)


5
(

51
(
 1.16504e-05
 1.04893e-05
 1.13625e-05
 1.11740e-05
 1.09708e-05
 1.01864e-05
 9.32013e-06
 9.33299e-06
 9.32375e-06
 9.29619e-06
 9.25390e-06
 9.19932e-06
 9.13243e-06
 9.05280e-06
 8.94315e-06
 8.83641e-06
 8.73245e-06
 8.63124e-06
 8.53264e-06
 8.43664e-06
 8.34310e-06
 8.25195e-06
 8.16313e-06
 8.07660e-06
 7.99229e-06
 7.91012e-06
 7.83005e-06
 7.75202e-06
 7.67600e-06
 7.60197e-06
 7.52985e-06
 7.45963e-06
 7.39128e-06
 7.32477e-06
 7.26006e-06
 7.19720e-06
 7.13612e-06
 7.07681e-06
 7.01929e-06
 6.96356e-06
 6.90964e-06
 6.85752e-06
 6.80727e-06
 6.75884e-06
 6.71223e-06
 6.66784e-06
 6.62546e-06
 6.58486e-06
 6.54678e-06
 6.51093e-06
 6.47689e-06
)


51
(
 1.16504e-05
 1.11454e-05
 1.09056e-05
 1.07183e-05
 1.05508e-05
 1.03935e-05
 1.02425e-05
 1.00965e-05
 9.95474e-06
 9.81683e-06
 9.68266e-06
 9.55218e-06
 9.42536e-06
 9.30217e-06
 9.18257e-06
 9.06652e-06
 8.95392e-06
 8.84470e-06
 8.73875e-06
 8.63595e-06
 8.53617e-06
 8.43929e-06
 8.34516e-06
 8.25366e-06
 8.16466e-06
 8.07803e-06
 7.99365e-06
 7.91142e-06
 7.83123e-06
 7.75298e-06
 7.67661e-06
 7.60203e-06
 7.52917e-06
 7.45799e-06
 7.38843e-06
 7.32045e-06
 7.25403e-06
 7.18913e-06
 7.12573e-06
 7.06382e-06
 7.00338e-06
 6.94442e-06
 6.88691e-06
 6.83088e-06
 6.77630e-06
 6.72317e-06
 6.67150e-06
 6.62125e-06
 6.57234e-06
 6.52457e-06
 6.47689e-06
)


51
(
 1.16504e-05
 1.12319e-05
 1.10060e-05
 1.08301e-05
 1.06753e-05
 1.05321e-05
 1.03960e-05
 1.02651e-05
 1.01381e-05
 1.00144e-05
 9.89348e-06
 9.77510e-06
 9.65903e-06
 9.54514e-06
 9.43331e-06
 9.32348e-06
 9.21557e-06
 9.10954e-06
 9.00534e-06
 8.90294e-06
 8.80230e-06
 8.70339e-06
 8.60619e-06
 8.51068e-06
 8.41682e-06
 8.32459e-06
 8.23397e-06
 8.14493e-06
 8.05746e-06
 7.97153e-06
 7.88711e-06
 7.80419e-06
 7.72275e-06
 7.64275e-06
 7.56418e-06
 7.48702e-06
 7.41125e-06
 7.33684e-06
 7.26378e-06
 7.19203e-06
 7.12159e-06
 7.05243e-06
 6.98452e-06
 6.91784e-06
 6.85236e-06
 6.78804e-06
 6.72482e-06
 6.66261e-06
 6.60120e-06
 6.54004e-06
 6.47689e-06
)


51
(
 1.16504e-05
 1.13451e-05
 1.11396e-05
 1.09729e-05
 1.08260e-05
 1.06910e-05
 1.05636e-05
 1.04416e-05
 1.03236e-05
 1.02087e-05
 1.00964e-05
 9.98619e-06
 9.87782e-06
 9.77107e-06
 9.66579e-06
 9.56184e-06
 9.45912e-06
 9.35758e-06
 9.25713e-06
 9.15774e-06
 9.05936e-06
 8.96195e-06
 8.86549e-06
 8.76995e-06
 8.67531e-06
 8.58156e-06
 8.48867e-06
 8.39663e-06
 8.30542e-06
 8.21505e-06
 8.12548e-06
 8.03673e-06
 7.94876e-06
 7.86158e-06
 7.77518e-06
 7.68954e-06
 7.60466e-06
 7.52052e-06
 7.43712e-06
 7.35445e-06
 7.27248e-06
 7.19121e-06
 7.11061e-06
 7.03065e-06
 6.95129e-06
 6.87247e-06
 6.79409e-06
 6.71597e-06
 6.63779e-06
 6.55874e-06
 6.47689e-06
)


51
(
 1.16504e-05
 1.15469e-05
 1.14435e-05
 1.13400e-05
 1.12365e-05
 1.11331e-05
 1.10296e-05
 1.09261e-05
 1.08226e-05
 1.07192e-05
 1.06157e-05
 1.05122e-05
 1.04088e-05
 1.03053e-05
 1.02018e-05
 1.00984e-05
 9.99489e-06
 9.89142e-06
 9.78795e-06
 9.68448e-06
 9.58100e-06
 9.47753e-06
 9.37406e-06
 9.27059e-06
 9.16712e-06
 9.06365e-06
 8.96018e-06
 8.85671e-06
 8.75324e-06
 8.64977e-06
 8.54630e-06
 8.44283e-06
 8.33936e-06
 8.23589e-06
 8.13242e-06
 8.02895e-06
 7.92548e-06
 7.82201e-06
 7.71854e-06
 7.61507e-06
 7.51160e-06
 7.40813e-06
 7.30466e-06
 7.20119e-06
 7.09772e-06
 6.99425e-06
 6.89078e-06
 6.78731e-06
 6.68383e-06
 6.58036e-06
 6.47689e-06
)


)


5
(

51
(
 1.16504e-05
 9.99927e-06
 1.12166e-05
 1.10188e-05
 1.08086e-05
 9.80075e-06
 8.66443e-06
 8.76011e-06
 8.82051e-06
 8.85130e-06
 8.85804e-06
 8.84440e-06
 8.81049e-06
 8.75572e-06
 8.65422e-06
 8.55545e-06
 8.45931e-06
 8.36578e-06
 8.27473e-06
 8.18616e-06
 8.09995e-06
 8.01604e-06
 7.93438e-06
 7.85494e-06
 7.77765e-06
 7.70247e-06
 7.62935e-06
 7.55825e-06
 7.48915e-06
 7.42204e-06
 7.35684e-06
 7.29360e-06
 7.23225e-06
 7.17280e-06
 7.11524e-06
 7.05961e-06
 7.00588e-06
 6.95406e-06
 6.90417e-06
 6.85626e-06
 6.81035e-06
 6.76648e-06
 6.72475e-06
 6.68513e-06
 6.64761e-06
 6.61281e-06
 6.58043e-06
 6.55017e-06
 6.52314e-06
 6.49891e-06
 6.47689e-06
)


51
(
 1.16504e-05
 1.09678e-05
 1.06791e-05
 1.04683e-05
 1.02866e-05
 1.01197e-05
 9.96193e-06
 9.81101e-06
 9.66580e-06
 9.52576e-06
 9.39060e-06
 9.26018e-06
 9.13440e-06
 9.01315e-06
 8.89635e-06
 8.78386e-06
 8.67555e-06
 8.57126e-06
 8.47082e-06
 8.37404e-06
 8.28074e-06
 8.19073e-06
 8.10380e-06
 8.01978e-06
 7.93849e-06
 7.85975e-06
 7.78342e-06
 7.70935e-06
 7.63740e-06
 7.56747e-06
 7.49946e-06
 7.43327e-06
 7.36883e-06
 7.30609e-06
 7.24498e-06
 7.18548e-06
 7.12755e-06
 7.07117e-06
 7.01633e-06
 6.96303e-06
 6.91126e-06
 6.86102e-06
 6.81234e-06
 6.76520e-06
 6.71964e-06
 6.67566e-06
 6.63325e-06
 6.59240e-06
 6.55305e-06
 6.51494e-06
 6.47689e-06
)


51
(
 1.16504e-05
 1.10909e-05
 1.08175e-05
 1.06181e-05
 1.04497e-05
 1.02979e-05
 1.01564e-05
 1.00220e-05
 9.89305e-06
 9.76840e-06
 9.64743e-06
 9.52968e-06
 9.41487e-06
 9.30276e-06
 9.19319e-06
 9.08604e-06
 8.98122e-06
 8.87863e-06
 8.77823e-06
 8.67994e-06
 8.58371e-06
 8.48951e-06
 8.39729e-06
 8.30701e-06
 8.21863e-06
 8.13212e-06
 8.04744e-06
 7.96456e-06
 7.88345e-06
 7.80407e-06
 7.72639e-06
 7.65038e-06
 7.57601e-06
 7.50326e-06
 7.43208e-06
 7.36246e-06
 7.29437e-06
 7.22777e-06
 7.16264e-06
 7.09896e-06
 7.03669e-06
 6.97582e-06
 6.91630e-06
 6.85811e-06
 6.80121e-06
 6.74555e-06
 6.69105e-06
 6.63761e-06
 6.58496e-06
 6.53237e-06
 6.47689e-06
)


51
(
 1.16504e-05
 1.12530e-05
 1.10038e-05
 1.08121e-05
 1.06497e-05
 1.05046e-05
 1.03706e-05
 1.02445e-05
 1.01240e-05
 1.00079e-05
 9.89527e-06
 9.78559e-06
 9.67838e-06
 9.57332e-06
 9.47017e-06
 9.36875e-06
 9.26890e-06
 9.17053e-06
 9.07353e-06
 8.97783e-06
 8.88337e-06
 8.79010e-06
 8.69797e-06
 8.60695e-06
 8.51700e-06
 8.42810e-06
 8.34022e-06
 8.25333e-06
 8.16743e-06
 8.08249e-06
 7.99850e-06
 7.91544e-06
 7.83329e-06
 7.75205e-06
 7.67169e-06
 7.59221e-06
 7.51360e-06
 7.43583e-06
 7.35889e-06
 7.28277e-06
 7.20744e-06
 7.13289e-06
 7.05907e-06
 6.98596e-06
 6.91348e-06
 6.84157e-06
 6.77007e-06
 6.69875e-06
 6.62712e-06
 6.55411e-06
 6.47689e-06
)


51
(
 1.16504e-05
 1.15469e-05
 1.14435e-05
 1.13400e-05
 1.12365e-05
 1.11331e-05
 1.10296e-05
 1.09261e-05
 1.08226e-05
 1.07192e-05
 1.06157e-05
 1.05122e-05
 1.04088e-05
 1.03053e-05
 1.02018e-05
 1.00984e-05
 9.99489e-06
 9.89142e-06
 9.78795e-06
 9.68448e-06
 9.58100e-06
 9.47753e-06
 9.37406e-06
 9.27059e-06
 9.16712e-06
 9.06365e-06
 8.96018e-06
 8.85671e-06
 8.75324e-06
 8.64977e-06
 8.54630e-06
 8.44283e-06
 8.33936e-06
 8.23589e-06
 8.13242e-06
 8.02895e-06
 7.92548e-06
 7.82201e-06
 7.71854e-06
 7.61507e-06
 7.51160e-06
 7.40813e-06
 7.30466e-06
 7.20119e-06
 7.09772e-06
 6.99425e-06
 6.89078e-06
 6.78731e-06
 6.68383e-06
 6.58036e-06
 6.47689e-06
)


)


5
(

51
(
 1.16504e-05
 9.50920e-06
 1.10054e-05
 1.07942e-05
 1.05845e-05
 9.40876e-06
 8.00874e-06
 8.18724e-06
 8.31726e-06
 8.40640e-06
 8.46218e-06
 8.48949e-06
 8.48855e-06
 8.45863e-06
 8.36530e-06
 8.27449e-06
 8.18616e-06
 8.10031e-06
 8.01681e-06
 7.93567e-06
 7.85679e-06
 7.78013e-06
 7.70563e-06
 7.63328e-06
 7.56302e-06
 7.49482e-06
 7.42865e-06
 7.36448e-06
 7.30229e-06
 7.24210e-06
 7.18384e-06
 7.12756e-06
 7.07322e-06
 7.02083e-06
 6.97041e-06
 6.92203e-06
 6.87565e-06
 6.83130e-06
 6.78905e-06
 6.74895e-06
 6.71106e-06
 6.67545e-06
 6.64224e-06
 6.61142e-06
 6.58298e-06
 6.55779e-06
 6.53541e-06
 6.51549e-06
 6.49950e-06
 6.48688e-06
 6.47689e-06
)


51
(
 1.16504e-05
 1.07877e-05
 1.04470e-05
 1.02100e-05
 1.00121e-05
 9.83413e-06
 9.66863e-06
 9.51231e-06
 9.36357e-06
 9.22157e-06
 9.08582e-06
 8.95604e-06
 8.83199e-06
 8.71347e-06
 8.60029e-06
 8.49222e-06
 8.38904e-06
 8.29051e-06
 8.19637e-06
 8.10638e-06
 8.02025e-06
 7.93775e-06
 7.85861e-06
 7.78260e-06
 7.70949e-06
 7.63908e-06
 7.57116e-06
 7.50557e-06
 7.44216e-06
 7.38078e-06
 7.32133e-06
 7.26371e-06
 7.20785e-06
 7.15366e-06
 7.10112e-06
 7.05017e-06
 7.00081e-06
 6.95301e-06
 6.90678e-06
 6.86212e-06
 6.81904e-06
 6.77757e-06
 6.73771e-06
 6.69950e-06
 6.66296e-06
 6.62812e-06
 6.59499e-06
 6.56356e-06
 6.53376e-06
 6.50531e-06
 6.47689e-06
)


51
(
 1.16504e-05
 1.09491e-05
 1.06271e-05
 1.04030e-05
 1.02200e-05
 1.00588e-05
 9.91106e-06
 9.77260e-06
 9.64108e-06
 9.51509e-06
 9.39373e-06
 9.27641e-06
 9.16270e-06
 9.05231e-06
 8.94499e-06
 8.84059e-06
 8.73895e-06
 8.63997e-06
 8.54354e-06
 8.44958e-06
 8.35803e-06
 8.26880e-06
 8.18185e-06
 8.09710e-06
 8.01452e-06
 7.93405e-06
 7.85564e-06
 7.77923e-06
 7.70480e-06
 7.63229e-06
 7.56167e-06
 7.49288e-06
 7.42589e-06
 7.36067e-06
 7.29717e-06
 7.23536e-06
 7.17520e-06
 7.11666e-06
 7.05971e-06
 7.00431e-06
 6.95043e-06
 6.89804e-06
 6.84709e-06
 6.79756e-06
 6.74940e-06
 6.70255e-06
 6.65692e-06
 6.61237e-06
 6.56857e-06
 6.52465e-06
 6.47689e-06
)


51
(
 1.16504e-05
 1.11608e-05
 1.08675e-05
 1.06504e-05
 1.04721e-05
 1.03166e-05
 1.01757e-05
 1.00450e-05
 9.92172e-06
 9.80413e-06
 9.69105e-06
 9.58168e-06
 9.47544e-06
 9.37191e-06
 9.27077e-06
 9.17176e-06
 9.07470e-06
 8.97943e-06
 8.88583e-06
 8.79380e-06
 8.70325e-06
 8.61412e-06
 8.52635e-06
 8.43988e-06
 8.35467e-06
 8.27069e-06
 8.18791e-06
 8.10628e-06
 8.02578e-06
 7.94640e-06
 7.86811e-06
 7.79088e-06
 7.71469e-06
 7.63954e-06
 7.56540e-06
 7.49224e-06
 7.42007e-06
 7.34884e-06
 7.27855e-06
 7.20917e-06
 7.14067e-06
 7.07303e-06
 7.00619e-06
 6.94012e-06
 6.87473e-06
 6.80992e-06
 6.74549e-06
 6.68114e-06
 6.61625e-06
 6.54940e-06
 6.47689e-06
)


51
(
 1.16504e-05
 1.15469e-05
 1.14435e-05
 1.13400e-05
 1.12365e-05
 1.11331e-05
 1.10296e-05
 1.09261e-05
 1.08226e-05
 1.07192e-05
 1.06157e-05
 1.05122e-05
 1.04088e-05
 1.03053e-05
 1.02018e-05
 1.00984e-05
 9.99489e-06
 9.89142e-06
 9.78795e-06
 9.68448e-06
 9.58100e-06
 9.47753e-06
 9.37406e-06
 9.27059e-06
 9.16712e-06
 9.06365e-06
 8.96018e-06
 8.85671e-06
 8.75324e-06
 8.64977e-06
 8.54630e-06
 8.44283e-06
 8.33936e-06
 8.23589e-06
 8.13242e-06
 8.02895e-06
 7.92548e-06
 7.82201e-06
 7.71854e-06
 7.61507e-06
 7.51160e-06
 7.40813e-06
 7.30466e-06
 7.20119e-06
 7.09772e-06
 6.99425e-06
 6.89078e-06
 6.78731e-06
 6.68383e-06
 6.58036e-06
 6.47689e-06
)


)


5
(

51
(
 1.16504e-05
 9.13267e-06
 1.07354e-05
 1.05071e-05
 1.03049e-05
 9.01235e-06
 7.35304e-06
 7.61436e-06
 7.81402e-06
 7.96151e-06
 8.06632e-06
 8.13458e-06
 8.16660e-06
 8.16155e-06
 8.07637e-06
 7.99353e-06
 7.91302e-06
 7.83484e-06
 7.75889e-06
 7.68519e-06
 7.61364e-06
 7.54421e-06
 7.47688e-06
 7.41162e-06
 7.34839e-06
 7.28717e-06
 7.22795e-06
 7.17071e-06
 7.11544e-06
 7.06217e-06
 7.01083e-06
 6.96152e-06
 6.91420e-06
 6.86886e-06
 6.82559e-06
 6.78445e-06
 6.74542e-06
 6.70855e-06
 6.67393e-06
 6.64164e-06
 6.61177e-06
 6.58442e-06
 6.55972e-06
 6.53770e-06
 6.51836e-06
 6.50276e-06
 6.49039e-06
 6.48080e-06
 6.47586e-06
 6.47486e-06
 6.47689e-06
)


51
(
 1.16504e-05
 1.06369e-05
 1.02435e-05
 9.97533e-06
 9.75561e-06
 9.56142e-06
 9.38372e-06
 9.21835e-06
 9.06316e-06
 8.91694e-06
 8.77893e-06
 8.64858e-06
 8.52546e-06
 8.40919e-06
 8.29939e-06
 8.19571e-06
 8.09777e-06
 8.00522e-06
 7.91768e-06
 7.83479e-06
 7.75620e-06
 7.68157e-06
 7.61057e-06
 7.54292e-06
 7.47831e-06
 7.41651e-06
 7.35728e-06
 7.30042e-06
 7.24575e-06
 7.19312e-06
 7.14240e-06
 7.09350e-06
 7.04631e-06
 7.00080e-06
 6.95690e-06
 6.91458e-06
 6.87385e-06
 6.83468e-06
 6.79710e-06
 6.76111e-06
 6.72675e-06
 6.69405e-06
 6.66304e-06
 6.63377e-06
 6.60626e-06
 6.58057e-06
 6.55672e-06
 6.53470e-06
 6.51446e-06
 6.49568e-06
 6.47689e-06
)


51
(
 1.16504e-05
 1.08340e-05
 1.04686e-05
 1.02201e-05
 1.00208e-05
 9.84787e-06
 9.69134e-06
 9.54619e-06
 9.40959e-06
 9.27985e-06
 9.15586e-06
 9.03689e-06
 8.92239e-06
 8.81198e-06
 8.70536e-06
 8.60231e-06
 8.50261e-06
 8.40612e-06
 8.31270e-06
 8.22223e-06
 8.13460e-06
 8.04971e-06
 7.96747e-06
 7.88780e-06
 7.81062e-06
 7.73586e-06
 7.66345e-06
 7.59332e-06
 7.52541e-06
 7.45965e-06
 7.39599e-06
 7.33437e-06
 7.27474e-06
 7.21705e-06
 7.16124e-06
 7.10727e-06
 7.05510e-06
 7.00468e-06
 6.95596e-06
 6.90892e-06
 6.86350e-06
 6.81966e-06
 6.77737e-06
 6.73658e-06
 6.69724e-06
 6.65927e-06
 6.62258e-06
 6.58698e-06
 6.55211e-06
 6.51690e-06
 6.47689e-06
)


51
(
 1.16504e-05
 1.10871e-05
 1.07575e-05
 1.05185e-05
 1.03258e-05
 1.01602e-05
 1.00122e-05
 9.87632e-06
 9.74932e-06
 9.62913e-06
 9.51436e-06
 9.40405e-06
 9.29751e-06
 9.19421e-06
 9.09378e-06
 8.99592e-06
 8.90039e-06
 8.80702e-06
 8.71564e-06
 8.62615e-06
 8.53842e-06
 8.45238e-06
 8.36796e-06
 8.28508e-06
 8.20370e-06
 8.12376e-06
 8.04523e-06
 7.96807e-06
 7.89223e-06
 7.81769e-06
 7.74442e-06
 7.67239e-06
 7.60158e-06
 7.53196e-06
 7.46350e-06
 7.39618e-06
 7.32999e-06
 7.26488e-06
 7.20084e-06
 7.13783e-06
 7.07583e-06
 7.01478e-06
 6.95465e-06
 6.89536e-06
 6.83682e-06
 6.77889e-06
 6.72135e-06
 6.66382e-06
 6.60553e-06
 6.54474e-06
 6.47689e-06
)


51
(
 1.16504e-05
 1.15469e-05
 1.14435e-05
 1.13400e-05
 1.12365e-05
 1.11331e-05
 1.10296e-05
 1.09261e-05
 1.08226e-05
 1.07192e-05
 1.06157e-05
 1.05122e-05
 1.04088e-05
 1.03053e-05
 1.02018e-05
 1.00984e-05
 9.99489e-06
 9.89142e-06
 9.78795e-06
 9.68448e-06
 9.58100e-06
 9.47753e-06
 9.37406e-06
 9.27059e-06
 9.16712e-06
 9.06365e-06
 8.96018e-06
 8.85671e-06
 8.75324e-06
 8.64977e-06
 8.54630e-06
 8.44283e-06
 8.33936e-06
 8.23589e-06
 8.13242e-06
 8.02895e-06
 7.92548e-06
 7.82201e-06
 7.71854e-06
 7.61507e-06
 7.51160e-06
 7.40813e-06
 7.30466e-06
 7.20119e-06
 7.09772e-06
 6.99425e-06
 6.89078e-06
 6.78731e-06
 6.68383e-06
 6.58036e-06
 6.47689e-06
)


)


5
(

51
(
 1.16504e-05
 8.85138e-06
 1.04131e-05
 1.01647e-05
 9.97595e-06
 8.61338e-06
 6.69734e-06
 7.04149e-06
 7.31077e-06
 7.51662e-06
 7.67046e-06
 7.77966e-06
 7.84466e-06
 7.86446e-06
 7.78744e-06
 7.71257e-06
 7.63987e-06
 7.56937e-06
 7.50098e-06
 7.43471e-06
 7.37049e-06
 7.30830e-06
 7.24812e-06
 7.18995e-06
 7.13375e-06
 7.07953e-06
 7.02726e-06
 6.97694e-06
 6.92858e-06
 6.88224e-06
 6.83783e-06
 6.79549e-06
 6.75517e-06
 6.71690e-06
 6.68076e-06
 6.64686e-06
 6.61518e-06
 6.58580e-06
 6.55881e-06
 6.53434e-06
 6.51249e-06
 6.49339e-06
 6.47721e-06
 6.46399e-06
 6.45374e-06
 6.44773e-06
 6.44536e-06
 6.44612e-06
 6.45222e-06
 6.46284e-06
 6.47689e-06
)


51
(
 1.16504e-05
 1.05086e-05
 1.00618e-05
 9.75827e-06
 9.51219e-06
 9.29765e-06
 9.10421e-06
 8.92689e-06
 8.76298e-06
 8.61081e-06
 8.46925e-06
 8.33746e-06
 8.21471e-06
 8.10037e-06
 7.99386e-06
 7.89461e-06
 7.80208e-06
 7.71574e-06
 7.63509e-06
 7.55964e-06
 7.48892e-06
 7.42250e-06
 7.35998e-06
 7.30099e-06
 7.24518e-06
 7.19226e-06
 7.14196e-06
 7.09405e-06
 7.04831e-06
 7.00460e-06
 6.96276e-06
 6.92269e-06
 6.88430e-06
 6.84754e-06
 6.81236e-06
 6.77875e-06
 6.74669e-06
 6.71620e-06
 6.68729e-06
 6.66001e-06
 6.63439e-06
 6.61048e-06
 6.58833e-06
 6.56800e-06
 6.54955e-06
 6.53301e-06
 6.51844e-06
 6.50584e-06
 6.49516e-06
 6.48605e-06
 6.47689e-06
)


51
(
 1.16504e-05
 1.07394e-05
 1.03348e-05
 1.00618e-05
 9.84498e-06
 9.65845e-06
 9.49106e-06
 9.33711e-06
 9.19342e-06
 9.05801e-06
 8.92962e-06
 8.80735e-06
 8.69057e-06
 8.57881e-06
 8.47168e-06
 8.36888e-06
 8.27017e-06
 8.17534e-06
 8.08418e-06
 7.99655e-06
 7.91228e-06
 7.83125e-06
 7.75333e-06
 7.67841e-06
 7.60636e-06
 7.53709e-06
 7.47051e-06
 7.40651e-06
 7.34502e-06
 7.28595e-06
 7.22922e-06
 7.17476e-06
 7.12249e-06
 7.07235e-06
 7.02427e-06
 6.97820e-06
 6.93407e-06
 6.89182e-06
 6.85142e-06
 6.81280e-06
 6.77591e-06
 6.74072e-06
 6.70716e-06
 6.67518e-06
 6.64473e-06
 6.61572e-06
 6.58803e-06
 6.56146e-06
 6.53557e-06
 6.50912e-06
 6.47689e-06
)


51
(
 1.16504e-05
 1.10278e-05
 1.06678e-05
 1.04096e-05
 1.02037e-05
 1.00284e-05
 9.87298e-06
 9.73136e-06
 9.59989e-06
 9.47624e-06
 9.35883e-06
 9.24658e-06
 9.13870e-06
 9.03462e-06
 8.93389e-06
 8.83618e-06
 8.74122e-06
 8.64879e-06
 8.55872e-06
 8.47087e-06
 8.38511e-06
 8.30135e-06
 8.21949e-06
 8.13946e-06
 8.06119e-06
 7.98462e-06
 7.90971e-06
 7.83639e-06
 7.76464e-06
 7.69441e-06
 7.62565e-06
 7.55834e-06
 7.49245e-06
 7.42794e-06
 7.36477e-06
 7.30293e-06
 7.24237e-06
 7.18306e-06
 7.12498e-06
 7.06808e-06
 7.01232e-06
 6.95765e-06
 6.90401e-06
 6.85132e-06
 6.79947e-06
 6.74828e-06
 6.69750e-06
 6.64667e-06
 6.59489e-06
 6.54011e-06
 6.47689e-06
)


51
(
 1.16504e-05
 1.15469e-05
 1.14435e-05
 1.13400e-05
 1.12365e-05
 1.11331e-05
 1.10296e-05
 1.09261e-05
 1.08226e-05
 1.07192e-05
 1.06157e-05
 1.05122e-05
 1.04088e-05
 1.03053e-05
 1.02018e-05
 1.00984e-05
 9.99489e-06
 9.89142e-06
 9.78795e-06
 9.68448e-06
 9.58100e-06
 9.47753e-06
 9.37406e-06
 9.27059e-06
 9.16712e-06
 9.06365e-06
 8.96018e-06
 8.85671e-06
 8.75324e-06
 8.64977e-06
 8.54630e-06
 8.44283e-06
 8.33936e-06
 8.23589e-06
 8.13242e-06
 8.02895e-06
 7.92548e-06
 7.82201e-06
 7.71854e-06
 7.61507e-06
 7.51160e-06
 7.40813e-06
 7.30466e-06
 7.20119e-06
 7.09772e-06
 6.99425e-06
 6.89078e-06
 6.78731e-06
 6.68383e-06
 6.58036e-06
 6.47689e-06
)


)


5
(

51
(
 1.16504e-05
 8.57222e-06
 1.00451e-05
 9.77391e-06
 9.60406e-06
 8.21374e-06
 6.04164e-06
 6.46862e-06
 6.80753e-06
 7.07173e-06
 7.27460e-06
 7.42475e-06
 7.52272e-06
 7.56738e-06
 7.49851e-06
 7.43160e-06
 7.36673e-06
 7.30390e-06
 7.24306e-06
 7.18423e-06
 7.12734e-06
 7.07239e-06
 7.01937e-06
 6.96829e-06
 6.91912e-06
 6.87188e-06
 6.82656e-06
 6.78317e-06
 6.74173e-06
 6.70230e-06
 6.66482e-06
 6.62945e-06
 6.59614e-06
 6.56493e-06
 6.53593e-06
 6.50928e-06
 6.48495e-06
 6.46304e-06
 6.44369e-06
 6.42703e-06
 6.41320e-06
 6.40235e-06
 6.39469e-06
 6.39028e-06
 6.38911e-06
 6.39270e-06
 6.40034e-06
 6.41143e-06
 6.42858e-06
 6.45081e-06
 6.47689e-06
)


51
(
 1.16504e-05
 1.03779e-05
 9.87548e-06
 9.53485e-06
 9.26113e-06
 9.02537e-06
 8.81566e-06
 8.62615e-06
 8.45349e-06
 8.29555e-06
 8.15077e-06
 8.01795e-06
 7.89608e-06
 7.78424e-06
 7.68160e-06
 7.58738e-06
 7.50085e-06
 7.42130e-06
 7.34808e-06
 7.28058e-06
 7.21821e-06
 7.16044e-06
 7.10680e-06
 7.05683e-06
 7.01015e-06
 6.96640e-06
 6.92528e-06
 6.88652e-06
 6.84992e-06
 6.81528e-06
 6.78246e-06
 6.75135e-06
 6.72186e-06
 6.69394e-06
 6.66755e-06
 6.64269e-06
 6.61935e-06
 6.59757e-06
 6.57738e-06
 6.55883e-06
 6.54197e-06
 6.52687e-06
 6.51360e-06
 6.50222e-06
 6.49281e-06
 6.48544e-06
 6.48016e-06
 6.47698e-06
 6.47585e-06
 6.47641e-06
 6.47689e-06
)


51
(
 1.16504e-05
 1.06438e-05
 1.01989e-05
 9.90071e-06
 9.66558e-06
 9.46488e-06
 9.28615e-06
 9.12304e-06
 8.97194e-06
 8.83065e-06
 8.69768e-06
 8.57201e-06
 8.45290e-06
 8.33977e-06
 8.23217e-06
 8.12971e-06
 8.03209e-06
 7.93903e-06
 7.85030e-06
 7.76568e-06
 7.68497e-06
 7.60801e-06
 7.53462e-06
 7.46465e-06
 7.39796e-06
 7.33442e-06
 7.27389e-06
 7.21627e-06
 7.16143e-06
 7.10927e-06
 7.05970e-06
 7.01260e-06
 6.96791e-06
 6.92552e-06
 6.88537e-06
 6.84738e-06
 6.81147e-06
 6.77758e-06
 6.74564e-06
 6.71560e-06
 6.68740e-06
 6.66098e-06
 6.63628e-06
 6.61324e-06
 6.59178e-06
 6.57183e-06
 6.55323e-06
 6.53577e-06
 6.51893e-06
 6.50131e-06
 6.47689e-06
)


51
(
 1.16504e-05
 1.09679e-05
 1.05771e-05
 1.02995e-05
 1.00799e-05
 9.89467e-06
 9.73162e-06
 9.58406e-06
 9.44794e-06
 9.32066e-06
 9.20048e-06
 9.08617e-06
 8.97687e-06
 8.87192e-06
 8.77083e-06
 8.67322e-06
 8.57879e-06
 8.48729e-06
 8.39853e-06
 8.31233e-06
 8.22856e-06
 8.14710e-06
 8.06785e-06
 7.99071e-06
 7.91562e-06
 7.84249e-06
 7.77127e-06
 7.70189e-06
 7.63431e-06
 7.56848e-06
 7.50435e-06
 7.44187e-06
 7.38101e-06
 7.32173e-06
 7.26398e-06
 7.20774e-06
 7.15295e-06
 7.09958e-06
 7.04760e-06
 6.99694e-06
 6.94757e-06
 6.89942e-06
 6.85242e-06
 6.80647e-06
 6.76144e-06
 6.71714e-06
 6.67325e-06
 6.62926e-06
 6.58411e-06
 6.53543e-06
 6.47689e-06
)


51
(
 1.16504e-05
 1.15469e-05
 1.14435e-05
 1.13400e-05
 1.12365e-05
 1.11331e-05
 1.10296e-05
 1.09261e-05
 1.08226e-05
 1.07192e-05
 1.06157e-05
 1.05122e-05
 1.04088e-05
 1.03053e-05
 1.02018e-05
 1.00984e-05
 9.99489e-06
 9.89142e-06
 9.78795e-06
 9.68448e-06
 9.58100e-06
 9.47753e-06
 9.37406e-06
 9.27059e-06
 9.16712e-06
 9.06365e-06
 8.96018e-06
 8.85671e-06
 8.75324e-06
 8.64977e-06
 8.54630e-06
 8.44283e-06
 8.33936e-06
 8.23589e-06
 8.13242e-06
 8.02895e-06
 7.92548e-06
 7.82201e-06
 7.71854e-06
 7.61507e-06
 7.51160e-06
 7.40813e-06
 7.30466e-06
 7.20119e-06
 7.09772e-06
 6.99425e-06
 6.89078e-06
 6.78731e-06
 6.68383e-06
 6.58036e-06
 6.47689e-06
)


)


5
(

51
(
 1.16504e-05
 8.30043e-06
 9.63798e-06
 9.34185e-06
 9.19550e-06
 7.81531e-06
 5.38594e-06
 5.89574e-06
 6.30428e-06
 6.62683e-06
 6.87874e-06
 7.06983e-06
 7.20078e-06
 7.27029e-06
 7.20959e-06
 7.15064e-06
 7.09359e-06
 7.03844e-06
 6.98514e-06
 6.93375e-06
 6.88419e-06
 6.83648e-06
 6.79062e-06
 6.74663e-06
 6.70449e-06
 6.66423e-06
 6.62586e-06
 6.58940e-06
 6.55488e-06
 6.52237e-06
 6.49182e-06
 6.46341e-06
 6.43711e-06
 6.41296e-06
 6.39111e-06
 6.37169e-06
 6.35471e-06
 6.34029e-06
 6.32857e-06
 6.31972e-06
 6.31391e-06
 6.31132e-06
 6.31217e-06
 6.31656e-06
 6.32449e-06
 6.33767e-06
 6.35531e-06
 6.37674e-06
 6.40495e-06
 6.43879e-06
 6.47689e-06
)


51
(
 1.16504e-05
 1.02466e-05
 9.68679e-06
 9.30751e-06
 9.00492e-06
 8.74701e-06
 8.52042e-06
 8.31836e-06
 8.13683e-06
 7.97314e-06
 7.82531e-06
 7.69176e-06
 7.57112e-06
 7.46219e-06
 7.36387e-06
 7.27515e-06
 7.19507e-06
 7.12277e-06
 7.05743e-06
 6.99829e-06
 6.94466e-06
 6.89591e-06
 6.85147e-06
 6.81082e-06
 6.77353e-06
 6.73918e-06
 6.70745e-06
 6.67805e-06
 6.65073e-06
 6.62530e-06
 6.60162e-06
 6.57957e-06
 6.55906e-06
 6.54005e-06
 6.52251e-06
 6.50645e-06
 6.49188e-06
 6.47884e-06
 6.46739e-06
 6.45759e-06
 6.44950e-06
 6.44322e-06
 6.43883e-06
 6.43642e-06
 6.43607e-06
 6.43786e-06
 6.44187e-06
 6.44812e-06
 6.45655e-06
 6.46678e-06
 6.47689e-06
)


51
(
 1.16504e-05
 1.05483e-05
 1.00627e-05
 9.73873e-06
 9.48473e-06
 9.26932e-06
 9.07877e-06
 8.90607e-06
 8.74723e-06
 8.59976e-06
 8.46199e-06
 8.33275e-06
 8.21119e-06
 8.09661e-06
 7.98849e-06
 7.88636e-06
 7.78985e-06
 7.69863e-06
 7.61240e-06
 7.53089e-06
 7.45386e-06
 7.38109e-06
 7.31237e-06
 7.24752e-06
 7.18635e-06
 7.12870e-06
 7.07440e-06
 7.02331e-06
 6.97530e-06
 6.93023e-06
 6.88797e-06
 6.84842e-06
 6.81146e-06
 6.77699e-06
 6.74492e-06
 6.71515e-06
 6.68761e-06
 6.66221e-06
 6.63887e-06
 6.61754e-06
 6.59813e-06
 6.58059e-06
 6.56485e-06
 6.55084e-06
 6.53848e-06
 6.52766e-06
 6.51823e-06
 6.50994e-06
 6.50222e-06
 6.49347e-06
 6.47689e-06
)


51
(
 1.16504e-05
 1.09084e-05
 1.04868e-05
 1.01896e-05
 9.95632e-06
 9.76086e-06
 9.58998e-06
 9.43630e-06
 9.29534e-06
 9.16426e-06
 9.04114e-06
 8.92463e-06
 8.81377e-06
 8.70784e-06
 8.60628e-06
 8.50868e-06
 8.41470e-06