/*--------------------------------*- C++ -*----------------------------------*\
| =========                 |                                                 |
| \      /  F ield          | OpenFOAM: The Open Source CFD Toolbox           |
|  \    /   O peration      | Version:  7                                     |
|   \  /    A nd            | Web:      http://www.OpenFOAM.com               |
|    \/     M anipulation   |                                                 |
\*---------------------------------------------------------------------------*/
FoamFile 
{   version     2.0;
    format      ascii;
    class       dictionary;
    location    "constant";
    object      LDMtable;
}
// * * * * * * * * * * * * * * * * * * * * * * * * * * * * * * * * * * * * * //

PVmax_table
5
(

51
(
 5.78283e-61
 3.71728e-03
 9.30965e-03
 1.08770e-02
 1.27922e-02
 1.37216e-02
 1.12335e-02
 1.10339e-02
 1.07952e-02
 1.05439e-02
 1.02886e-02
 1.00321e-02
 9.77507e-03
 9.51792e-03
 9.26071e-03
 9.00347e-03
 8.74623e-03
 8.48898e-03
 8.23174e-03
 7.97449e-03
 7.71724e-03
 7.46000e-03
 7.20275e-03
 6.94551e-03
 6.68827e-03
 6.43102e-03
 6.17378e-03
 5.91654e-03
 5.65930e-03
 5.40205e-03
 5.14481e-03
 4.88757e-03
 4.63033e-03
 4.37309e-03
 4.11585e-03
 3.85861e-03
 3.60137e-03
 3.34413e-03
 3.08689e-03
 2.82965e-03
 2.57241e-03
 2.31517e-03
 2.05792e-03
 1.80068e-03
 1.54344e-03
 1.28620e-03
 1.02896e-03
 7.71722e-04
 5.14481e-04
 2.57241e-04
 5.78283e-61
)


51
(
 5.78283e-61
 1.91812e-03
 3.19412e-03
 4.22825e-03
 5.09074e-03
 5.81063e-03
 6.40611e-03
 6.89133e-03
 7.27838e-03
 7.57812e-03
 7.80039e-03
 7.95421e-03
 8.04779e-03
 8.08863e-03
 8.08349e-03
 8.03849e-03
 7.95908e-03
 7.85013e-03
 7.71595e-03
 7.56031e-03
 7.38654e-03
 7.19751e-03
 6.99571e-03
 6.78327e-03
 6.56203e-03
 6.33354e-03
 6.09910e-03
 5.85982e-03
 5.61663e-03
 5.37027e-03
 5.12138e-03
 4.87047e-03
 4.61795e-03
 4.36416e-03
 4.10937e-03
 3.85377e-03
 3.59752e-03
 3.34073e-03
 3.08349e-03
 2.82585e-03
 2.56783e-03
 2.30945e-03
 2.05069e-03
 1.79155e-03
 1.53202e-03
 1.27212e-03
 1.01194e-03
 7.51758e-04
 4.92354e-04
 2.36463e-04
 5.78283e-61
)


51
(
 5.78283e-61
 1.24644e-03
 1.99043e-03
 2.57473e-03
 3.06900e-03
 3.49818e-03
 3.87416e-03
 4.20383e-03
 4.49182e-03
 4.74160e-03
 4.95597e-03
 5.13732e-03
 5.28778e-03
 5.40927e-03
 5.50356e-03
 5.57232e-03
 5.61708e-03
 5.63933e-03
 5.64043e-03
 5.62171e-03
 5.58439e-03
 5.52967e-03
 5.45866e-03
 5.37241e-03
 5.27192e-03
 5.15816e-03
 5.03201e-03
 4.89431e-03
 4.74588e-03
 4.58747e-03
 4.41978e-03
 4.24348e-03
 4.05920e-03
 3.86754e-03
 3.66904e-03
 3.46422e-03
 3.25357e-03
 3.03755e-03
 2.81659e-03
 2.59109e-03
 2.36145e-03
 2.12804e-03
 1.89124e-03
 1.65143e-03
 1.40904e-03
 1.16458e-03
 9.18769e-04
 6.72794e-04
 4.29117e-04
 1.94600e-04
 5.78283e-61
)


51
(
 5.78283e-61
 7.12672e-04
 1.15145e-03
 1.47862e-03
 1.74324e-03
 1.96670e-03
 2.15990e-03
 2.32904e-03
 2.47794e-03
 2.60914e-03
 2.72441e-03
 2.82506e-03
 2.91209e-03
 2.98629e-03
 3.04832e-03
 3.09874e-03
 3.13802e-03
 3.16658e-03
 3.18481e-03
 3.19306e-03
 3.19165e-03
 3.18088e-03
 3.16104e-03
 3.13240e-03
 3.09521e-03
 3.04972e-03
 2.99617e-03
 2.93479e-03
 2.86581e-03
 2.78945e-03
 2.70592e-03
 2.61542e-03
 2.51817e-03
 2.41438e-03
 2.30424e-03
 2.18797e-03
 2.06576e-03
 1.93785e-03
 1.80443e-03
 1.66576e-03
 1.52209e-03
 1.37370e-03
 1.22093e-03
 1.06421e-03
 9.04072e-04
 7.41301e-04
 5.77084e-04
 4.13445e-04
 2.54262e-04
 1.08322e-04
 5.78283e-61
)


51
(
 5.78283e-61
 5.78283e-61
 5.78283e-61
 5.78283e-61
 5.78283e-61
 5.78283e-61
 5.78283e-61
 5.78283e-61
 5.78283e-61
 5.78283e-61
 5.78283e-61
 5.78283e-61
 5.78283e-61
 5.78283e-61
 5.78283e-61
 5.78283e-61
 5.78283e-61
 5.78283e-61
 5.78283e-61
 5.78283e-61
 5.78283e-61
 5.78283e-61
 5.78283e-61
 5.78283e-61
 5.78283e-61
 5.78283e-61
 5.78283e-61
 5.78283e-61
 5.78283e-61
 5.78283e-61
 5.78283e-61
 5.78283e-61
 5.78283e-61
 5.78283e-61
 5.78283e-61
 5.78283e-61
 5.78283e-61
 5.78283e-61
 5.78283e-61
 5.78283e-61
 5.78283e-61
 5.78283e-61
 5.78283e-61
 5.78283e-61
 5.78283e-61
 5.78283e-61
 5.78283e-61
 5.78283e-61
 5.78283e-61
 5.78283e-61
 5.78283e-61
)


)
;