/*--------------------------------*- C++ -*----------------------------------*\
| =========                 |                                                 |
| \      /  F ield          | OpenFOAM: The Open Source CFD Toolbox           |
|  \    /   O peration      | Version:  7                                     |
|   \  /    A nd            | Web:      http://www.OpenFOAM.com               |
|    \/     M anipulation   |                                                 |
\*---------------------------------------------------------------------------*/
FoamFile 
{   version     2.0;
    format      ascii;
    class       dictionary;
    location    "constant";
    object      LDMtable;
}
// * * * * * * * * * * * * * * * * * * * * * * * * * * * * * * * * * * * * * //

PVmin_table
5
(

51
(
 5.78283e-61
 1.93043e-31
 6.95639e-31
 1.36633e-31
 2.09059e-19
 7.82643e-17
 1.13071e-30
 1.31323e-30
 1.50414e-30
 1.70887e-30
 1.90212e-30
 2.07206e-30
 2.13774e-30
 2.17898e-30
 2.19897e-30
 2.19929e-30
 2.19896e-30
 2.19117e-30
 2.18250e-30
 2.15372e-30
 2.10974e-30
 2.06694e-30
 2.02266e-30
 1.96548e-30
 1.89643e-30
 1.82665e-30
 1.75392e-30
 1.68276e-30
 1.61260e-30
 1.54205e-30
 1.47639e-30
 1.41328e-30
 1.34686e-30
 1.27802e-30
 1.20895e-30
 1.13902e-30
 1.06723e-30
 9.94452e-31
 9.20421e-31
 8.44730e-31
 7.68681e-31
 6.92000e-31
 6.15453e-31
 5.38664e-31
 4.61752e-31
 3.84775e-31
 3.07889e-31
 2.31053e-31
 1.54251e-31
 7.74363e-32
 5.78283e-61
)


51
(
 5.78283e-61
 3.64950e-19
 8.66994e-19
 1.32965e-18
 1.72671e-18
 2.05302e-18
 2.30961e-18
 2.50013e-18
 2.62962e-18
 2.70391e-18
 2.72921e-18
 2.71192e-18
 2.65837e-18
 2.57473e-18
 2.46686e-18
 2.34023e-18
 2.19985e-18
 2.05024e-18
 1.89538e-18
 1.73873e-18
 1.58325e-18
 1.43135e-18
 1.28501e-18
 1.14575e-18
 1.01470e-18
 8.92637e-19
 7.80029e-19
 6.77074e-19
 5.83749e-19
 4.99850e-19
 4.25025e-19
 3.58815e-19
 3.00679e-19
 2.50023e-19
 2.06223e-19
 1.68643e-19
 1.36652e-19
 1.09639e-19
 8.70178e-20
 6.82380e-20
 5.27888e-20
 4.02020e-20
 3.00536e-20
 2.19639e-20
 1.55965e-20
 1.06567e-20
 6.88941e-21
 4.07782e-21
 2.04378e-21
 6.61260e-22
 5.78283e-61
)


51
(
 5.78283e-61
 1.21059e-19
 3.08675e-19
 4.96589e-19
 6.71724e-19
 8.30333e-19
 9.71402e-19
 1.09495e-18
 1.20148e-18
 1.29168e-18
 1.36640e-18
 1.42652e-18
 1.47298e-18
 1.50670e-18
 1.52862e-18
 1.53964e-18
 1.54068e-18
 1.53260e-18
 1.51626e-18
 1.49248e-18
 1.46204e-18
 1.42571e-18
 1.38420e-18
 1.33821e-18
 1.28838e-18
 1.23533e-18
 1.17964e-18
 1.12185e-18
 1.06246e-18
 1.00196e-18
 9.40770e-19
 8.79298e-19
 8.17912e-19
 7.56948e-19
 6.96712e-19
 6.37479e-19
 5.79493e-19
 5.22976e-19
 4.68118e-19
 4.15088e-19
 3.64034e-19
 3.15082e-19
 2.68342e-19
 2.23910e-19
 1.81878e-19
 1.42343e-19
 1.05433e-19
 7.13654e-20
 4.06158e-20
 1.45846e-20
 5.78283e-61
)


51
(
 5.78283e-61
 2.89727e-20
 8.35917e-20
 1.45281e-19
 2.07837e-19
 2.68662e-19
 3.26521e-19
 3.80794e-19
 4.31163e-19
 4.77480e-19
 5.19696e-19
 5.57817e-19
 5.91891e-19
 6.21988e-19
 6.48196e-19
 6.70614e-19
 6.89347e-19
 7.04508e-19
 7.16211e-19
 7.24573e-19
 7.29712e-19
 7.31747e-19
 7.30797e-19
 7.26981e-19
 7.20416e-19
 7.11220e-19
 6.99508e-19
 6.85397e-19
 6.68999e-19
 6.50428e-19
 6.29795e-19
 6.07211e-19
 5.82784e-19
 5.56625e-19
 5.28840e-19
 4.99538e-19
 4.68826e-19
 4.36814e-19
 4.03614e-19
 3.69340e-19
 3.34113e-19
 2.98063e-19
 2.61339e-19
 2.24110e-19
 1.86592e-19
 1.49072e-19
 1.11976e-19
 7.60008e-20
 4.24603e-20
 1.42896e-20
 5.78283e-61
)


51
(
 5.78283e-61
 5.78283e-61
 5.78283e-61
 5.78283e-61
 5.78283e-61
 5.78283e-61
 5.78283e-61
 5.78283e-61
 5.78283e-61
 5.78283e-61
 5.78283e-61
 5.78283e-61
 5.78283e-61
 5.78283e-61
 5.78283e-61
 5.78283e-61
 5.78283e-61
 5.78283e-61
 5.78283e-61
 5.78283e-61
 5.78283e-61
 5.78283e-61
 5.78283e-61
 5.78283e-61
 5.78283e-61
 5.78283e-61
 5.78283e-61
 5.78283e-61
 5.78283e-61
 5.78283e-61
 5.78283e-61
 5.78283e-61
 5.78283e-61
 5.78283e-61
 5.78283e-61
 5.78283e-61
 5.78283e-61
 5.78283e-61
 5.78283e-61
 5.78283e-61
 5.78283e-61
 5.78283e-61
 5.78283e-61
 5.78283e-61
 5.78283e-61
 5.78283e-61
 5.78283e-61
 5.78283e-61
 5.78283e-61
 5.78283e-61
 5.78283e-61
)


)
;