/*--------------------------------*- C++ -*----------------------------------*\
| =========                 |                                                 |
| \      /  F ield          | OpenFOAM: The Open Source CFD Toolbox           |
|  \    /   O peration      | Version:  7                                     |
|   \  /    A nd            | Web:      http://www.OpenFOAM.com               |
|    \/     M anipulation   |                                                 |
\*---------------------------------------------------------------------------*/
FoamFile 
{   version     2.0;
    format      ascii;
    class       dictionary;
    location    "constant";
    object      LDMtable;
}
// * * * * * * * * * * * * * * * * * * * * * * * * * * * * * * * * * * * * * //

rho_table
5
(

51
(

5
(

51
(
 1.18048e+00
 1.16214e+00
 1.15962e+00
 1.14103e+00
 1.12380e+00
 1.10777e+00
 1.07724e+00
 1.06176e+00
 1.04671e+00
 1.03209e+00
 1.01787e+00
 1.00404e+00
 9.90584e-01
 9.77479e-01
 9.64716e-01
 9.52286e-01
 9.40169e-01
 9.28358e-01
 9.16837e-01
 9.05603e-01
 8.94639e-01
 8.83936e-01
 8.73486e-01
 8.63282e-01
 8.53314e-01
 8.43572e-01
 8.34051e-01
 8.24741e-01
 8.15637e-01
 8.06733e-01
 7.98021e-01
 7.89495e-01
 7.81149e-01
 7.72978e-01
 7.64975e-01
 7.57138e-01
 7.49459e-01
 7.41934e-01
 7.34559e-01
 7.27329e-01
 7.20240e-01
 7.13286e-01
 7.06469e-01
 6.99778e-01
 6.93213e-01
 6.86771e-01
 6.80449e-01
 6.74240e-01
 6.68143e-01
 6.62157e-01
 6.56271e-01
)


51
(
 1.18048e+00
 1.16291e+00
 1.14600e+00
 1.12937e+00
 1.11300e+00
 1.09691e+00
 1.08112e+00
 1.06565e+00
 1.05052e+00
 1.03573e+00
 1.02129e+00
 1.00721e+00
 9.93480e-01
 9.80103e-01
 9.67071e-01
 9.54377e-01
 9.42014e-01
 9.29973e-01
 9.18244e-01
 9.06817e-01
 8.95681e-01
 8.84826e-01
 8.74243e-01
 8.63920e-01
 8.53848e-01
 8.44018e-01
 8.34421e-01
 8.25047e-01
 8.15889e-01
 8.06938e-01
 7.98187e-01
 7.89629e-01
 7.81256e-01
 7.73063e-01
 7.65044e-01
 7.57191e-01
 7.49500e-01
 7.41966e-01
 7.34583e-01
 7.27348e-01
 7.20254e-01
 7.13298e-01
 7.06476e-01
 6.99784e-01
 6.93217e-01
 6.86774e-01
 6.80449e-01
 6.74239e-01
 6.68142e-01
 6.62154e-01
 6.56271e-01
)


51
(
 1.18048e+00
 1.16228e+00
 1.14471e+00
 1.12763e+00
 1.11101e+00
 1.09483e+00
 1.07907e+00
 1.06372e+00
 1.04877e+00
 1.03420e+00
 1.02000e+00
 1.00617e+00
 9.92682e-01
 9.79535e-01
 9.66715e-01
 9.54213e-01
 9.42019e-01
 9.30123e-01
 9.18516e-01
 9.07188e-01
 8.96131e-01
 8.85336e-01
 8.74795e-01
 8.64499e-01
 8.54441e-01
 8.44613e-01
 8.35009e-01
 8.25620e-01
 8.16441e-01
 8.07464e-01
 7.98683e-01
 7.90092e-01
 7.81686e-01
 7.73458e-01
 7.65403e-01
 7.57515e-01
 7.49791e-01
 7.42224e-01
 7.34810e-01
 7.27544e-01
 7.20423e-01
 7.13441e-01
 7.06595e-01
 6.99880e-01
 6.93294e-01
 6.86832e-01
 6.80491e-01
 6.74267e-01
 6.68157e-01
 6.62159e-01
 6.56271e-01
)


51
(
 1.18048e+00
 1.16204e+00
 1.14419e+00
 1.12689e+00
 1.11009e+00
 1.09378e+00
 1.07793e+00
 1.06252e+00
 1.04755e+00
 1.03297e+00
 1.01880e+00
 1.00499e+00
 9.91554e-01
 9.78462e-01
 9.65706e-01
 9.53272e-01
 9.41149e-01
 9.29325e-01
 9.17791e-01
 9.06535e-01
 8.95548e-01
 8.84820e-01
 8.74343e-01
 8.64109e-01
 8.54108e-01
 8.44334e-01
 8.34778e-01
 8.25434e-01
 8.16295e-01
 8.07355e-01
 7.98606e-01
 7.90044e-01
 7.81662e-01
 7.73454e-01
 7.65417e-01
 7.57543e-01
 7.49830e-01
 7.42271e-01
 7.34862e-01
 7.27599e-01
 7.20478e-01
 7.13495e-01
 7.06645e-01
 6.99926e-01
 6.93334e-01
 6.86864e-01
 6.80515e-01
 6.74283e-01
 6.68166e-01
 6.62161e-01
 6.56271e-01
)


51
(
 1.18048e+00
 1.16192e+00
 1.14393e+00
 1.12649e+00
 1.10957e+00
 1.09316e+00
 1.07722e+00
 1.06175e+00
 1.04671e+00
 1.03209e+00
 1.01787e+00
 1.00404e+00
 9.90580e-01
 9.77477e-01
 9.64715e-01
 9.52283e-01
 9.40167e-01
 9.28355e-01
 9.16837e-01
 9.05600e-01
 8.94636e-01
 8.83934e-01
 8.73486e-01
 8.63281e-01
 8.53312e-01
 8.43571e-01
 8.34049e-01
 8.24740e-01
 8.15637e-01
 8.06732e-01
 7.98020e-01
 7.89494e-01
 7.81148e-01
 7.72976e-01
 7.64974e-01
 7.57136e-01
 7.49457e-01
 7.41932e-01
 7.34557e-01
 7.27327e-01
 7.20237e-01
 7.13285e-01
 7.06466e-01
 6.99776e-01
 6.93211e-01
 6.86768e-01
 6.80444e-01
 6.74235e-01
 6.68139e-01
 6.62152e-01
 6.56271e-01
)


)


5
(

51
(
 1.18048e+00
 1.11249e+00
 1.15879e+00
 1.14017e+00
 1.12114e+00
 1.07039e+00
 1.01080e+00
 1.00371e+00
 9.95720e-01
 9.87015e-01
 9.77761e-01
 9.68083e-01
 9.57964e-01
 9.47377e-01
 9.35440e-01
 9.23818e-01
 9.12492e-01
 9.01459e-01
 8.90703e-01
 8.80222e-01
 8.70001e-01
 8.60032e-01
 8.50308e-01
 8.40822e-01
 8.31566e-01
 8.22533e-01
 8.13715e-01
 8.05108e-01
 7.96704e-01
 7.88501e-01
 7.80492e-01
 7.72671e-01
 7.65035e-01
 7.57580e-01
 7.50301e-01
 7.43197e-01
 7.36263e-01
 7.29496e-01
 7.22894e-01
 7.16456e-01
 7.10179e-01
 7.04062e-01
 6.98108e-01
 6.92309e-01
 6.86665e-01
 6.81195e-01
 6.75887e-01
 6.70725e-01
 6.65748e-01
 6.60939e-01
 6.56271e-01
)


51
(
 1.18048e+00
 1.14409e+00
 1.12177e+00
 1.10252e+00
 1.08466e+00
 1.06767e+00
 1.05138e+00
 1.03567e+00
 1.02051e+00
 1.00584e+00
 9.91654e-01
 9.77925e-01
 9.64637e-01
 9.51772e-01
 9.39313e-01
 9.27243e-01
 9.15546e-01
 9.04205e-01
 8.93204e-01
 8.82527e-01
 8.72160e-01
 8.62086e-01
 8.52292e-01
 8.42766e-01
 8.33493e-01
 8.24463e-01
 8.15665e-01
 8.07088e-01
 7.98723e-01
 7.90562e-01
 7.82596e-01
 7.74819e-01
 7.67223e-01
 7.59802e-01
 7.52550e-01
 7.45463e-01
 7.38536e-01
 7.31763e-01
 7.25141e-01
 7.18666e-01
 7.12334e-01
 7.06142e-01
 7.00086e-01
 6.94164e-01
 6.88373e-01
 6.82710e-01
 6.77172e-01
 6.71757e-01
 6.66463e-01
 6.61292e-01
 6.56271e-01
)


51
(
 1.18048e+00
 1.14759e+00
 1.12515e+00
 1.10573e+00
 1.08782e+00
 1.07092e+00
 1.05478e+00
 1.03929e+00
 1.02435e+00
 1.00993e+00
 9.95974e-01
 9.82455e-01
 9.69349e-01
 9.56632e-01
 9.44285e-01
 9.32291e-01
 9.20634e-01
 9.09299e-01
 8.98273e-01
 8.87543e-01
 8.77098e-01
 8.66926e-01
 8.57016e-01
 8.47360e-01
 8.37947e-01
 8.28768e-01
 8.19816e-01
 8.11081e-01
 8.02556e-01
 7.94235e-01
 7.86109e-01
 7.78172e-01
 7.70417e-01
 7.62840e-01
 7.55433e-01
 7.48191e-01
 7.41109e-01
 7.34182e-01
 7.27405e-01
 7.20773e-01
 7.14282e-01
 7.07927e-01
 7.01704e-01
 6.95610e-01
 6.89641e-01
 6.83792e-01
 6.78062e-01
 6.72445e-01
 6.66941e-01
 6.61547e-01
 6.56271e-01
)


51
(
 1.18048e+00
 1.15256e+00
 1.13047e+00
 1.11090e+00
 1.09283e+00
 1.07582e+00
 1.05962e+00
 1.04410e+00
 1.02917e+00
 1.01476e+00
 1.00083e+00
 9.87335e-01
 9.74254e-01
 9.61559e-01
 9.49227e-01
 9.37240e-01
 9.25580e-01
 9.14234e-01
 9.03186e-01
 8.92423e-01
 8.81935e-01
 8.71709e-01
 8.61736e-01
 8.52005e-01
 8.42508e-01
 8.33236e-01
 8.24181e-01
 8.15335e-01
 8.06691e-01
 7.98242e-01
 7.89981e-01
 7.81902e-01
 7.74000e-01
 7.66267e-01
 7.58699e-01
 7.51291e-01
 7.44037e-01
 7.36933e-01
 7.29974e-01
 7.23156e-01
 7.16474e-01
 7.09924e-01
 7.03503e-01
 6.97206e-01
 6.91029e-01
 6.84970e-01
 6.79024e-01
 6.73187e-01
 6.67454e-01
 6.61818e-01
 6.56271e-01
)


51
(
 1.18048e+00
 1.16192e+00
 1.14393e+00
 1.12649e+00
 1.10957e+00
 1.09316e+00
 1.07722e+00
 1.06175e+00
 1.04671e+00
 1.03209e+00
 1.01787e+00
 1.00404e+00
 9.90580e-01
 9.77477e-01
 9.64715e-01
 9.52283e-01
 9.40167e-01
 9.28355e-01
 9.16837e-01
 9.05600e-01
 8.94636e-01
 8.83934e-01
 8.73486e-01
 8.63281e-01
 8.53312e-01
 8.43571e-01
 8.34049e-01
 8.24740e-01
 8.15637e-01
 8.06732e-01
 7.98020e-01
 7.89494e-01
 7.81148e-01
 7.72976e-01
 7.64974e-01
 7.57136e-01
 7.49457e-01
 7.41932e-01
 7.34557e-01
 7.27327e-01
 7.20237e-01
 7.13285e-01
 7.06466e-01
 6.99776e-01
 6.93211e-01
 6.86768e-01
 6.80444e-01
 6.74235e-01
 6.68139e-01
 6.62152e-01
 6.56271e-01
)


)


5
(

51
(
 1.18048e+00
 1.06283e+00
 1.15130e+00
 1.13220e+00
 1.11161e+00
 1.03214e+00
 9.44362e-01
 9.45665e-01
 9.44729e-01
 9.41936e-01
 9.37651e-01
 9.32121e-01
 9.25343e-01
 9.17275e-01
 9.06165e-01
 8.95349e-01
 8.84816e-01
 8.74561e-01
 8.64570e-01
 8.54842e-01
 8.45364e-01
 8.36129e-01
 8.27129e-01
 8.18362e-01
 8.09818e-01
 8.01493e-01
 7.93380e-01
 7.85474e-01
 7.77771e-01
 7.70270e-01
 7.62962e-01
 7.55847e-01
 7.48922e-01
 7.42182e-01
 7.35626e-01
 7.29256e-01
 7.23067e-01
 7.17058e-01
 7.11230e-01
 7.05583e-01
 7.00119e-01
 6.94838e-01
 6.89747e-01
 6.84840e-01
 6.80117e-01
 6.75619e-01
 6.71325e-01
 6.67211e-01
 6.63352e-01
 6.59720e-01
 6.56271e-01
)


51
(
 1.18048e+00
 1.12551e+00
 1.09847e+00
 1.07703e+00
 1.05789e+00
 1.04009e+00
 1.02325e+00
 1.00720e+00
 9.91842e-01
 9.77126e-01
 9.63009e-01
 9.49459e-01
 9.36446e-01
 9.23943e-01
 9.11924e-01
 9.00363e-01
 8.89234e-01
 8.78511e-01
 8.68172e-01
 8.58192e-01
 8.48550e-01
 8.39225e-01
 8.30197e-01
 8.21449e-01
 8.12964e-01
 8.04726e-01
 7.96723e-01
 7.88942e-01
 7.81372e-01
 7.74002e-01
 7.66825e-01
 7.59832e-01
 7.53017e-01
 7.46373e-01
 7.39895e-01
 7.33579e-01
 7.27420e-01
 7.21415e-01
 7.15560e-01
 7.09852e-01
 7.04290e-01
 6.98869e-01
 6.93589e-01
 6.88447e-01
 6.83442e-01
 6.78571e-01
 6.73833e-01
 6.69227e-01
 6.64753e-01
 6.60416e-01
 6.56271e-01
)


51
(
 1.18048e+00
 1.13274e+00
 1.10571e+00
 1.08418e+00
 1.06517e+00
 1.04768e+00
 1.03126e+00
 1.01567e+00
 1.00079e+00
 9.86512e-01
 9.72785e-01
 9.59558e-01
 9.46793e-01
 9.34461e-01
 9.22536e-01
 9.10994e-01
 8.99816e-01
 8.88983e-01
 8.78480e-01
 8.68290e-01
 8.58400e-01
 8.48797e-01
 8.39468e-01
 8.30403e-01
 8.21589e-01
 8.13018e-01
 8.04679e-01
 7.96563e-01
 7.88662e-01
 7.80968e-01
 7.73472e-01
 7.66168e-01
 7.59049e-01
 7.52107e-01
 7.45337e-01
 7.38732e-01
 7.32287e-01
 7.25997e-01
 7.19856e-01
 7.13859e-01
 7.08003e-01
 7.02281e-01
 6.96691e-01
 6.91228e-01
 6.85889e-01
 6.80669e-01
 6.75565e-01
 6.70574e-01
 6.65694e-01
 6.60922e-01
 6.56271e-01
)


51
(
 1.18048e+00
 1.14283e+00
 1.11653e+00
 1.09479e+00
 1.07554e+00
 1.05789e+00
 1.04140e+00
 1.02581e+00
 1.01096e+00
 9.96742e-01
 9.83077e-01
 9.69909e-01
 9.57195e-01
 9.44898e-01
 9.32990e-01
 9.21445e-01
 9.10242e-01
 8.99363e-01
 8.88790e-01
 8.78508e-01
 8.68504e-01
 8.58765e-01
 8.49280e-01
 8.40038e-01
 8.31030e-01
 8.22245e-01
 8.13675e-01
 8.05313e-01
 7.97149e-01
 7.89178e-01
 7.81393e-01
 7.73785e-01
 7.66351e-01
 7.59083e-01
 7.51976e-01
 7.45026e-01
 7.38225e-01
 7.31571e-01
 7.25057e-01
 7.18680e-01
 7.12435e-01
 7.06319e-01
 7.00326e-01
 6.94453e-01
 6.88696e-01
 6.83050e-01
 6.77512e-01
 6.72075e-01
 6.66733e-01
 6.61472e-01
 6.56271e-01
)


51
(
 1.18048e+00
 1.16192e+00
 1.14393e+00
 1.12649e+00
 1.10957e+00
 1.09316e+00
 1.07722e+00
 1.06175e+00
 1.04671e+00
 1.03209e+00
 1.01787e+00
 1.00404e+00
 9.90580e-01
 9.77477e-01
 9.64715e-01
 9.52283e-01
 9.40167e-01
 9.28355e-01
 9.16837e-01
 9.05600e-01
 8.94636e-01
 8.83934e-01
 8.73486e-01
 8.63281e-01
 8.53312e-01
 8.43571e-01
 8.34049e-01
 8.24740e-01
 8.15637e-01
 8.06732e-01
 7.98020e-01
 7.89494e-01
 7.81148e-01
 7.72976e-01
 7.64974e-01
 7.57136e-01
 7.49457e-01
 7.41932e-01
 7.34557e-01
 7.27327e-01
 7.20237e-01
 7.13285e-01
 7.06466e-01
 6.99776e-01
 6.93211e-01
 6.86768e-01
 6.80444e-01
 6.74235e-01
 6.68139e-01
 6.62152e-01
 6.56271e-01
)


)


5
(

51
(
 1.18048e+00
 1.01318e+00
 1.13652e+00
 1.11648e+00
 1.09518e+00
 9.93061e-01
 8.77924e-01
 8.87618e-01
 8.93738e-01
 8.96858e-01
 8.97541e-01
 8.96159e-01
 8.92723e-01
 8.87173e-01
 8.76889e-01
 8.66881e-01
 8.57139e-01
 8.47662e-01
 8.38437e-01
 8.29462e-01
 8.20727e-01
 8.12225e-01
 8.03951e-01
 7.95902e-01
 7.88071e-01
 7.80453e-01
 7.73044e-01
 7.65840e-01
 7.58838e-01
 7.52038e-01
 7.45432e-01
 7.39024e-01
 7.32808e-01
 7.26784e-01
 7.20952e-01
 7.15315e-01
 7.09871e-01
 7.04620e-01
 6.99565e-01
 6.94710e-01
 6.90059e-01
 6.85614e-01
 6.81386e-01
 6.77371e-01
 6.73569e-01
 6.70043e-01
 6.66763e-01
 6.63696e-01
 6.60957e-01
 6.58502e-01
 6.56271e-01
)


51
(
 1.18048e+00
 1.10627e+00
 1.07419e+00
 1.05029e+00
 1.02967e+00
 1.01092e+00
 9.93468e-01
 9.77055e-01
 9.61536e-01
 9.46823e-01
 9.32850e-01
 9.19565e-01
 9.06923e-01
 8.94882e-01
 8.83402e-01
 8.72445e-01
 8.61976e-01
 8.51959e-01
 8.42362e-01
 8.33153e-01
 8.24305e-01
 8.15789e-01
 8.07582e-01
 7.99662e-01
 7.92007e-01
 7.84601e-01
 7.77427e-01
 7.70472e-01
 7.63722e-01
 7.57167e-01
 7.50799e-01
 7.44609e-01
 7.38590e-01
 7.32737e-01
 7.27045e-01
 7.21511e-01
 7.16131e-01
 7.10903e-01
 7.05825e-01
 7.00894e-01
 6.96109e-01
 6.91470e-01
 6.86975e-01
 6.82624e-01
 6.78416e-01
 6.74351e-01
 6.70428e-01
 6.66648e-01
 6.63011e-01
 6.59527e-01
 6.56271e-01
)


51
(
 1.18048e+00
 1.11744e+00
 1.08572e+00
 1.06199e+00
 1.04179e+00
 1.02363e+00
 1.00686e+00
 9.91133e-01
 9.76257e-01
 9.62105e-01
 9.48590e-01
 9.35646e-01
 9.23223e-01
 9.11283e-01
 8.99790e-01
 8.88716e-01
 8.78036e-01
 8.67728e-01
 8.57772e-01
 8.48149e-01
 8.38843e-01
 8.29838e-01
 8.21120e-01
 8.12676e-01
 8.04493e-01
 7.96559e-01
 7.88865e-01
 7.81399e-01
 7.74152e-01
 7.67115e-01
 7.60280e-01
 7.53638e-01
 7.47182e-01
 7.40904e-01
 7.34799e-01
 7.28860e-01
 7.23080e-01
 7.17455e-01
 7.11978e-01
 7.06645e-01
 7.01451e-01
 6.96391e-01
 6.91461e-01
 6.86658e-01
 6.81977e-01
 6.77414e-01
 6.72967e-01
 6.68631e-01
 6.64403e-01
 6.60280e-01
 6.56271e-01
)


51
(
 1.18048e+00
 1.13277e+00
 1.10220e+00
 1.07825e+00
 1.05778e+00
 1.03948e+00
 1.02267e+00
 1.00699e+00
 9.92201e-01
 9.78150e-01
 9.64733e-01
 9.51874e-01
 9.39513e-01
 9.27605e-01
 9.16113e-01
 9.05006e-01
 8.94257e-01
 8.83844e-01
 8.73748e-01
 8.63951e-01
 8.54438e-01
 8.45194e-01
 8.36207e-01
 8.27465e-01
 8.18957e-01
 8.10673e-01
 8.02604e-01
 7.94741e-01
 7.87077e-01
 7.79602e-01
 7.72312e-01
 7.65197e-01
 7.58253e-01
 7.51472e-01
 7.44850e-01
 7.38380e-01
 7.32058e-01
 7.25878e-01
 7.19836e-01
 7.13927e-01
 7.08146e-01
 7.02490e-01
 6.96953e-01
 6.91532e-01
 6.86222e-01
 6.81018e-01
 6.75915e-01
 6.70906e-01
 6.65979e-01
 6.61114e-01
 6.56271e-01
)


51
(
 1.18048e+00
 1.16192e+00
 1.14393e+00
 1.12649e+00
 1.10957e+00
 1.09316e+00
 1.07722e+00
 1.06175e+00
 1.04671e+00
 1.03209e+00
 1.01787e+00
 1.00404e+00
 9.90580e-01
 9.77477e-01
 9.64715e-01
 9.52283e-01
 9.40167e-01
 9.28355e-01
 9.16837e-01
 9.05600e-01
 8.94636e-01
 8.83934e-01
 8.73486e-01
 8.63281e-01
 8.53312e-01
 8.43571e-01
 8.34049e-01
 8.24740e-01
 8.15637e-01
 8.06732e-01
 7.98020e-01
 7.89494e-01
 7.81148e-01
 7.72976e-01
 7.64974e-01
 7.57136e-01
 7.49457e-01
 7.41932e-01
 7.34557e-01
 7.27327e-01
 7.20237e-01
 7.13285e-01
 7.06466e-01
 6.99776e-01
 6.93211e-01
 6.86768e-01
 6.80444e-01
 6.74235e-01
 6.68139e-01
 6.62152e-01
 6.56271e-01
)


)


5
(

51
(
 1.18048e+00
 9.63520e-01
 1.11512e+00
 1.09372e+00
 1.07247e+00
 9.53343e-01
 8.11485e-01
 8.29572e-01
 8.42746e-01
 8.51779e-01
 8.57430e-01
 8.60198e-01
 8.60102e-01
 8.57071e-01
 8.47614e-01
 8.38413e-01
 8.29463e-01
 8.20764e-01
 8.12303e-01
 8.04082e-01
 7.96090e-01
 7.88321e-01
 7.80773e-01
 7.73442e-01
 7.66323e-01
 7.59413e-01
 7.52708e-01
 7.46206e-01
 7.39905e-01
 7.33806e-01
 7.27902e-01
 7.22200e-01
 7.16694e-01
 7.11386e-01
 7.06277e-01
 7.01375e-01
 6.96675e-01
 6.92182e-01
 6.87901e-01
 6.83837e-01
 6.79998e-01
 6.76390e-01
 6.73025e-01
 6.69902e-01
 6.67021e-01
 6.64468e-01
 6.62200e-01
 6.60182e-01
 6.58562e-01
 6.57283e-01
 6.56271e-01
)


51
(
 1.18048e+00
 1.08637e+00
 1.04895e+00
 1.02236e+00
 1.00010e+00
 9.80293e-01
 9.62177e-01
 9.45393e-01
 9.29735e-01
 9.15073e-01
 9.01308e-01
 8.88365e-01
 8.76177e-01
 8.64682e-01
 8.53826e-01
 8.43558e-01
 8.33828e-01
 8.24591e-01
 8.15806e-01
 8.07434e-01
 7.99438e-01
 7.91786e-01
 7.84449e-01
 7.77401e-01
 7.70618e-01
 7.64079e-01
 7.57766e-01
 7.51665e-01
 7.45761e-01
 7.40044e-01
 7.34504e-01
 7.29134e-01
 7.23928e-01
 7.18880e-01
 7.13988e-01
 7.09248e-01
 7.04658e-01
 7.00217e-01
 6.95925e-01
 6.91781e-01
 6.87784e-01
 6.83937e-01
 6.80238e-01
 6.76690e-01
 6.73292e-01
 6.70046e-01
 6.66954e-01
 6.64016e-01
 6.61235e-01
 6.58623e-01
 6.56271e-01
)


51
(
 1.18048e+00
 1.10168e+00
 1.06517e+00
 1.03916e+00
 1.01770e+00
 9.98805e-01
 9.81625e-01
 9.65713e-01
 9.50813e-01
 9.36759e-01
 9.23439e-01
 9.10769e-01
 8.98687e-01
 8.87141e-01
 8.76089e-01
 8.65495e-01
 8.55330e-01
 8.45565e-01
 8.36177e-01
 8.27143e-01
 8.18444e-01
 8.10062e-01
 8.01981e-01
 7.94184e-01
 7.86659e-01
 7.79390e-01
 7.72368e-01
 7.65579e-01
 7.59014e-01
 7.52662e-01
 7.46515e-01
 7.40563e-01
 7.34798e-01
 7.29213e-01
 7.23801e-01
 7.18555e-01
 7.13468e-01
 7.08535e-01
 7.03751e-01
 6.99110e-01
 6.94607e-01
 6.90238e-01
 6.85999e-01
 6.81885e-01
 6.77893e-01
 6.74018e-01
 6.70258e-01
 6.66609e-01
 6.63065e-01
 6.59620e-01
 6.56271e-01
)


51
(
 1.18048e+00
 1.12237e+00
 1.08746e+00
 1.06127e+00
 1.03957e+00
 1.02058e+00
 1.00344e+00
 9.87641e-01
 9.72888e-01
 9.58985e-01
 9.45799e-01
 9.33233e-01
 9.21213e-01
 9.09683e-01
 8.98598e-01
 8.87922e-01
 8.77624e-01
 8.67676e-01
 8.58058e-01
 8.48748e-01
 8.39730e-01
 8.30987e-01
 8.22505e-01
 8.14273e-01
 8.06277e-01
 7.98507e-01
 7.90953e-01
 7.83605e-01
 7.76456e-01
 7.69496e-01
 7.62719e-01
 7.56117e-01
 7.49684e-01
 7.43413e-01
 7.37298e-01
 7.31334e-01
 7.25515e-01
 7.19836e-01
 7.14291e-01
 7.08877e-01
 7.03588e-01
 6.98420e-01
 6.93369e-01
 6.88429e-01
 6.83596e-01
 6.78864e-01
 6.74227e-01
 6.69674e-01
 6.65190e-01
 6.60744e-01
 6.56271e-01
)


51
(
 1.18048e+00
 1.16192e+00
 1.14393e+00
 1.12649e+00
 1.10957e+00
 1.09316e+00
 1.07722e+00
 1.06175e+00
 1.04671e+00
 1.03209e+00
 1.01787e+00
 1.00404e+00
 9.90580e-01
 9.77477e-01
 9.64715e-01
 9.52283e-01
 9.40167e-01
 9.28355e-01
 9.16837e-01
 9.05600e-01
 8.94636e-01
 8.83934e-01
 8.73486e-01
 8.63281e-01
 8.53312e-01
 8.43571e-01
 8.34049e-01
 8.24740e-01
 8.15637e-01
 8.06732e-01
 7.98020e-01
 7.89494e-01
 7.81148e-01
 7.72976e-01
 7.64974e-01
 7.57136e-01
 7.49457e-01
 7.41932e-01
 7.34557e-01
 7.27327e-01
 7.20237e-01
 7.13285e-01
 7.06466e-01
 6.99776e-01
 6.93211e-01
 6.86768e-01
 6.80444e-01
 6.74235e-01
 6.68139e-01
 6.62152e-01
 6.56271e-01
)


)


5
(

51
(
 1.18048e+00
 9.25368e-01
 1.08776e+00
 1.06464e+00
 1.04414e+00
 9.13176e-01
 7.45047e-01
 7.71525e-01
 7.91755e-01
 8.06700e-01
 8.17320e-01
 8.24236e-01
 8.27481e-01
 8.26969e-01
 8.18338e-01
 8.09944e-01
 8.01787e-01
 7.93865e-01
 7.86170e-01
 7.78702e-01
 7.71453e-01
 7.64418e-01
 7.57594e-01
 7.50982e-01
 7.44575e-01
 7.38373e-01
 7.32372e-01
 7.26572e-01
 7.20972e-01
 7.15574e-01
 7.10373e-01
 7.05376e-01
 7.00581e-01
 6.95988e-01
 6.91602e-01
 6.87434e-01
 6.83479e-01
 6.79744e-01
 6.76236e-01
 6.72964e-01
 6.69938e-01
 6.67166e-01
 6.64664e-01
 6.62433e-01
 6.60473e-01
 6.58892e-01
 6.57638e-01
 6.56667e-01
 6.56167e-01
 6.56065e-01
 6.56271e-01
)


51
(
 1.18048e+00
 1.06915e+00
 1.02610e+00
 9.96167e-01
 9.71650e-01
 9.50263e-01
 9.31071e-01
 9.13600e-01
 8.97570e-01
 8.82794e-01
 8.69127e-01
 8.56457e-01
 8.44684e-01
 8.33723e-01
 8.23496e-01
 8.13932e-01
 8.04967e-01
 7.96543e-01
 7.88605e-01
 7.81105e-01
 7.73999e-01
 7.67248e-01
 7.60817e-01
 7.54674e-01
 7.48794e-01
 7.43152e-01
 7.37728e-01
 7.32506e-01
 7.27472e-01
 7.22614e-01
 7.17923e-01
 7.13391e-01
 7.09013e-01
 7.04786e-01
 7.00707e-01
 6.96773e-01
 6.92985e-01
 6.89344e-01
 6.85849e-01
 6.82502e-01
 6.79305e-01
 6.76260e-01
 6.73370e-01
 6.70636e-01
 6.68062e-01
 6.65651e-01
 6.63405e-01
 6.61327e-01
 6.59423e-01
 6.57704e-01
 6.56271e-01
)


51
(
 1.18048e+00
 1.08847e+00
 1.04751e+00
 1.01907e+00
 9.96058e-01
 9.76111e-01
 9.58205e-01
 9.41807e-01
 9.26608e-01
 9.12406e-01
 8.99061e-01
 8.86472e-01
 8.74560e-01
 8.63259e-01
 8.52519e-01
 8.42295e-01
 8.32547e-01
 8.23243e-01
 8.14353e-01
 8.05851e-01
 7.97711e-01
 7.89912e-01
 7.82435e-01
 7.75261e-01
 7.68374e-01
 7.61757e-01
 7.55398e-01
 7.49282e-01
 7.43398e-01
 7.37734e-01
 7.32281e-01
 7.27027e-01
 7.21965e-01
 7.17086e-01
 7.12382e-01
 7.07846e-01
 7.03472e-01
 6.99253e-01
 6.95183e-01
 6.91257e-01
 6.87471e-01
 6.83819e-01
 6.80297e-01
 6.76902e-01
 6.73628e-01
 6.70473e-01
 6.67433e-01
 6.64503e-01
 6.61676e-01
 6.58940e-01
 6.56271e-01
)


51
(
 1.18048e+00
 1.11377e+00
 1.07516e+00
 1.04696e+00
 1.02405e+00
 1.00431e+00
 9.86700e-01
 9.70631e-01
 9.55749e-01
 9.41825e-01
 9.28701e-01
 9.16263e-01
 9.04425e-01
 8.93123e-01
 8.82304e-01
 8.71926e-01
 8.61952e-01
 8.52353e-01
 8.43104e-01
 8.34181e-01
 8.25565e-01
 8.17238e-01
 8.09185e-01
 8.01390e-01
 7.93841e-01
 7.86526e-01
 7.79434e-01
 7.72555e-01
 7.65879e-01
 7.59397e-01
 7.53102e-01
 7.46985e-01
 7.41040e-01
 7.35259e-01
 7.29636e-01
 7.24165e-01
 7.18840e-01
 7.13657e-01
 7.08608e-01
 7.03690e-01
 6.98897e-01
 6.94224e-01
 6.89667e-01
 6.85220e-01
 6.80877e-01
 6.76632e-01
 6.72477e-01
 6.68398e-01
 6.64376e-01
 6.60366e-01
 6.56271e-01
)


51
(
 1.18048e+00
 1.16192e+00
 1.14393e+00
 1.12649e+00
 1.10957e+00
 1.09316e+00
 1.07722e+00
 1.06175e+00
 1.04671e+00
 1.03209e+00
 1.01787e+00
 1.00404e+00
 9.90580e-01
 9.77477e-01
 9.64715e-01
 9.52283e-01
 9.40167e-01
 9.28355e-01
 9.16837e-01
 9.05600e-01
 8.94636e-01
 8.83934e-01
 8.73486e-01
 8.63281e-01
 8.53312e-01
 8.43571e-01
 8.34049e-01
 8.24740e-01
 8.15637e-01
 8.06732e-01
 7.98020e-01
 7.89494e-01
 7.81148e-01
 7.72976e-01
 7.64974e-01
 7.57136e-01
 7.49457e-01
 7.41932e-01
 7.34557e-01
 7.27327e-01
 7.20237e-01
 7.13285e-01
 7.06466e-01
 6.99776e-01
 6.93211e-01
 6.86768e-01
 6.80444e-01
 6.74235e-01
 6.68139e-01
 6.62152e-01
 6.56271e-01
)


)


5
(

51
(
 1.18048e+00
 8.96866e-01
 1.05511e+00
 1.02994e+00
 1.01081e+00
 8.72751e-01
 6.78608e-01
 7.13479e-01
 7.40764e-01
 7.61621e-01
 7.77210e-01
 7.88274e-01
 7.94861e-01
 7.96867e-01
 7.89063e-01
 7.81476e-01
 7.74110e-01
 7.66967e-01
 7.60037e-01
 7.53322e-01
 7.46815e-01
 7.40514e-01
 7.34416e-01
 7.28522e-01
 7.22828e-01
 7.17333e-01
 7.12037e-01
 7.06939e-01
 7.02039e-01
 6.97342e-01
 6.92843e-01
 6.88553e-01
 6.84467e-01
 6.80589e-01
 6.76928e-01
 6.73493e-01
 6.70283e-01
 6.67306e-01
 6.64572e-01
 6.62092e-01
 6.59878e-01
 6.57942e-01
 6.56303e-01
 6.54964e-01
 6.53925e-01
 6.53316e-01
 6.53076e-01
 6.53153e-01
 6.53772e-01
 6.54847e-01
 6.56271e-01
)


51
(
 1.18048e+00
 1.05392e+00
 1.00483e+00
 9.70977e-01
 9.43681e-01
 9.20305e-01
 8.99724e-01
 8.81341e-01
 8.64782e-01
 8.49785e-01
 8.36152e-01
 8.23720e-01
 8.12352e-01
 8.01930e-01
 7.92349e-01
 7.83515e-01
 7.75347e-01
 7.67770e-01
 7.60716e-01
 7.54126e-01
 7.47948e-01
 7.42135e-01
 7.36645e-01
 7.31443e-01
 7.26498e-01
 7.21784e-01
 7.17279e-01
 7.12964e-01
 7.08824e-01
 7.04848e-01
 7.01027e-01
 6.97353e-01
 6.93822e-01
 6.90432e-01
 6.87181e-01
 6.84068e-01
 6.81096e-01
 6.78266e-01
 6.75581e-01
 6.73044e-01
 6.70658e-01
 6.68429e-01
 6.66359e-01
 6.64455e-01
 6.62720e-01
 6.61159e-01
 6.59777e-01
 6.58579e-01
 6.57572e-01
 6.56768e-01
 6.56271e-01
)


51
(
 1.18048e+00
 1.07724e+00
 1.03200e+00
 1.00096e+00
 9.76124e-01
 9.54839e-01
 9.35937e-01
 9.18808e-01
 9.03089e-01
 8.88544e-01
 8.75005e-01
 8.62348e-01
 8.50476e-01
 8.39311e-01
 8.28787e-01
 8.18850e-01
 8.09452e-01
 8.00552e-01
 7.92112e-01
 7.84100e-01
 7.76487e-01
 7.69246e-01
 7.62354e-01
 7.55788e-01
 7.49530e-01
 7.43560e-01
 7.37862e-01
 7.32421e-01
 7.27223e-01
 7.22256e-01
 7.17506e-01
 7.12964e-01
 7.08620e-01
 7.04464e-01
 7.00487e-01
 6.96682e-01
 6.93042e-01
 6.89560e-01
 6.86230e-01
 6.83047e-01
 6.80005e-01
 6.77100e-01
 6.74327e-01
 6.71682e-01
 6.69162e-01
 6.66761e-01
 6.64477e-01
 6.62303e-01
 6.60230e-01
 6.58239e-01
 6.56271e-01
)


51
(
 1.18048e+00
 1.10663e+00
 1.06480e+00
 1.03472e+00
 1.01059e+00
 9.90012e-01
 9.71815e-01
 9.55339e-01
 9.40186e-01
 9.26097e-01
 9.12894e-01
 9.00449e-01
 8.88666e-01
 8.77470e-01
 8.66802e-01
 8.56614e-01
 8.46866e-01
 8.37524e-01
 8.28559e-01
 8.19945e-01
 8.11660e-01
 8.03683e-01
 7.95998e-01
 7.88588e-01
 7.81438e-01
 7.74534e-01
 7.67866e-01
 7.61421e-01
 7.55188e-01
 7.49159e-01
 7.43324e-01
 7.37675e-01
 7.32204e-01
 7.26903e-01
 7.21765e-01
 7.16784e-01
 7.11953e-01
 7.07267e-01
 7.02720e-01
 6.98305e-01
 6.94019e-01
 6.89854e-01
 6.85806e-01
 6.81869e-01
 6.78036e-01
 6.74299e-01
 6.70648e-01
 6.67068e-01
 6.63530e-01
 6.59976e-01
 6.56271e-01
)


51
(
 1.18048e+00
 1.16192e+00
 1.14393e+00
 1.12649e+00
 1.10957e+00
 1.09316e+00
 1.07722e+00
 1.06175e+00
 1.04671e+00
 1.03209e+00
 1.01787e+00
 1.00404e+00
 9.90580e-01
 9.77477e-01
 9.64715e-01
 9.52283e-01
 9.40167e-01
 9.28355e-01
 9.16837e-01
 9.05600e-01
 8.94636e-01
 8.83934e-01
 8.73486e-01
 8.63281e-01
 8.53312e-01
 8.43571e-01
 8.34049e-01
 8.24740e-01
 8.15637e-01
 8.06732e-01
 7.98020e-01
 7.89494e-01
 7.81148e-01
 7.72976e-01
 7.64974e-01
 7.57136e-01
 7.49457e-01
 7.41932e-01
 7.34557e-01
 7.27327e-01
 7.20237e-01
 7.13285e-01
 7.06466e-01
 6.99776e-01
 6.93211e-01
 6.86768e-01
 6.80444e-01
 6.74235e-01
 6.68139e-01
 6.62152e-01
 6.56271e-01
)


)


5
(

51
(
 1.18048e+00
 8.68581e-01
 1.01782e+00
 9.90342e-01
 9.73131e-01
 8.32257e-01
 6.12169e-01
 6.55432e-01
 6.89773e-01
 7.16543e-01
 7.37099e-01
 7.52312e-01
 7.62240e-01
 7.66765e-01
 7.59787e-01
 7.53007e-01
 7.46434e-01
 7.40068e-01
 7.33903e-01
 7.27942e-01
 7.22178e-01
 7.16610e-01
 7.11238e-01
 7.06062e-01
 7.01080e-01
 6.96293e-01
 6.91701e-01
 6.87305e-01
 6.83106e-01
 6.79111e-01
 6.75313e-01
 6.71729e-01
 6.68354e-01
 6.65191e-01
 6.62253e-01
 6.59553e-01
 6.57087e-01
 6.54868e-01
 6.52907e-01
 6.51219e-01
 6.49817e-01
 6.48719e-01
 6.47942e-01
 6.47495e-01
 6.47377e-01
 6.47740e-01
 6.48514e-01
 6.49638e-01
 6.51376e-01
 6.53628e-01
 6.56271e-01
)


51
(
 1.18048e+00
 1.03797e+00
 9.82424e-01
 9.44409e-01
 9.14205e-01
 8.88790e-01
 8.66823e-01
 8.47562e-01
 8.30529e-01
 8.15380e-01
 8.01853e-01
 7.89733e-01
 7.78843e-01
 7.69030e-01
 7.60162e-01
 7.52124e-01
 7.44814e-01
 7.38140e-01
 7.32025e-01
 7.26398e-01
 7.21196e-01
 7.16366e-01
 7.11860e-01
 7.07639e-01
 7.03668e-01
 6.99918e-01
 6.96364e-01
 6.92987e-01
 6.89770e-01
 6.86703e-01
 6.83777e-01
 6.80984e-01
 6.78321e-01
 6.75788e-01
 6.73383e-01
 6.71109e-01
 6.68968e-01
 6.66965e-01
 6.65104e-01
 6.63390e-01
 6.61830e-01
 6.60430e-01
 6.59196e-01
 6.58135e-01
 6.57255e-01
 6.56562e-01
 6.56063e-01
 6.55766e-01
 6.55679e-01
 6.55815e-01
 6.56271e-01
)


51
(
 1.18048e+00
 1.06558e+00
 1.01586e+00
 9.82069e-01
 9.55302e-01
 9.32595e-01
 9.12638e-01
 8.94738e-01
 8.78475e-01
 8.63573e-01
 8.49835e-01
 8.37112e-01
 8.25288e-01
 8.14270e-01
 8.03977e-01
 7.94344e-01
 7.85314e-01
 7.76836e-01
 7.68867e-01
 7.61368e-01
 7.54304e-01
 7.47644e-01
 7.41360e-01
 7.35427e-01
 7.29822e-01
 7.24523e-01
 7.19513e-01
 7.14773e-01
 7.10288e-01
 7.06044e-01
 7.02026e-01
 6.98224e-01
 6.94626e-01
 6.91222e-01
 6.88003e-01
 6.84960e-01
 6.82086e-01
 6.79375e-01
 6.76818e-01
 6.74412e-01
 6.72150e-01
 6.70029e-01
 6.68042e-01
 6.66187e-01
 6.64459e-01
 6.62854e-01
 6.61368e-01
 6.59993e-01
 6.58718e-01
 6.57512e-01
 6.56271e-01
)


51
(
 1.18048e+00
 1.09923e+00
 1.05409e+00
 1.02205e+00
 9.96636e-01
 9.75173e-01
 9.56346e-01
 9.39426e-01
 9.23969e-01
 9.09688e-01
 8.96383e-01
 8.83912e-01
 8.72168e-01
 8.61066e-01
 8.50540e-01
 8.40537e-01
 8.31011e-01
 8.21924e-01
 8.13244e-01
 8.04941e-01
 7.96992e-01
 7.89372e-01
 7.82063e-01
 7.75047e-01
 7.68307e-01
 7.61829e-01
 7.55598e-01
 7.49603e-01
 7.43832e-01
 7.38275e-01
 7.32920e-01
 7.27760e-01
 7.22786e-01
 7.17989e-01
 7.13362e-01
 7.08898e-01
 7.04590e-01
 7.00432e-01
 6.96416e-01
 6.92538e-01
 6.88791e-01
 6.85170e-01
 6.81667e-01
 6.78277e-01
 6.74992e-01
 6.71803e-01
 6.68696e-01
 6.65652e-01
 6.62636e-01
 6.59569e-01
 6.56271e-01
)


51
(
 1.18048e+00
 1.16192e+00
 1.14393e+00
 1.12649e+00
 1.10957e+00
 1.09316e+00
 1.07722e+00
 1.06175e+00
 1.04671e+00
 1.03209e+00
 1.01787e+00
 1.00404e+00
 9.90580e-01
 9.77477e-01
 9.64715e-01
 9.52283e-01
 9.40167e-01
 9.28355e-01
 9.16837e-01
 9.05600e-01
 8.94636e-01
 8.83934e-01
 8.73486e-01
 8.63281e-01
 8.53312e-01
 8.43571e-01
 8.34049e-01
 8.24740e-01
 8.15637e-01
 8.06732e-01
 7.98020e-01
 7.89494e-01
 7.81148e-01
 7.72976e-01
 7.64974e-01
 7.57136e-01
 7.49457e-01
 7.41932e-01
 7.34557e-01
 7.27327e-01
 7.20237e-01
 7.13285e-01
 7.06466e-01
 6.99776e-01
 6.93211e-01
 6.86768e-01
 6.80444e-01
 6.74235e-01
 6.68139e-01
 6.62152e-01
 6.56271e-01
)


)


5
(

51
(
 1.18048e+00
 8.41041e-01
 9.76568e-01
 9.46563e-01
 9.31734e-01
 7.91886e-01
 5.45731e-01
 5.97386e-01
 6.38782e-01
 6.71464e-01
 6.96989e-01
 7.16351e-01
 7.29619e-01
 7.36662e-01
 7.30511e-01
 7.24539e-01
 7.18758e-01
 7.13170e-01
 7.07770e-01
 7.02562e-01
 6.97541e-01
 6.92706e-01
 6.88059e-01
 6.83602e-01
 6.79332e-01
 6.75253e-01
 6.71365e-01
 6.67671e-01
 6.64173e-01
 6.60879e-01
 6.57783e-01
 6.54905e-01
 6.52240e-01
 6.49793e-01
 6.47579e-01
 6.45612e-01
 6.43891e-01
 6.42430e-01
 6.41243e-01
 6.40346e-01
 6.39757e-01
 6.39495e-01
 6.39581e-01
 6.40026e-01
 6.40829e-01
 6.42165e-01
 6.43952e-01
 6.46124e-01
 6.48981e-01
 6.52410e-01
 6.56271e-01
)


51
(
 1.18048e+00
 1.02138e+00
 9.58949e-01
 9.16503e-01
 8.83250e-01
 8.55740e-01
 8.32385e-01
 8.12278e-01
 7.94821e-01
 7.79580e-01
 7.66222e-01
 7.54479e-01
 7.44130e-01
 7.34988e-01
 7.26893e-01
 7.19707e-01
 7.13308e-01
 7.07591e-01
 7.02465e-01
 6.97847e-01
 6.93668e-01
 6.89866e-01
 6.86389e-01
 6.83191e-01
 6.80234e-01
 6.77485e-01
 6.74919e-01
 6.72514e-01
 6.70254e-01
 6.68127e-01
 6.66123e-01
 6.64238e-01
 6.62469e-01
 6.60815e-01
 6.59279e-01
 6.57863e-01
 6.56573e-01
 6.55414e-01
 6.54395e-01
 6.53521e-01
 6.52803e-01
 6.52248e-01
 6.51866e-01
 6.51666e-01
 6.51659e-01
 6.51853e-01
 6.52258e-01
 6.52885e-01
 6.53742e-01
 6.54842e-01
 6.56271e-01
)


51
(
 1.18048e+00
 1.05363e+00
 9.99208e-01
 9.62491e-01
 9.33657e-01
 9.09429e-01
 8.88345e-01
 8.69620e-01
 8.52777e-01
 8.37495e-01
 8.23545e-01
 8.10751e-01
 7.98976e-01
 7.88108e-01
 7.78054e-01
 7.68737e-01
 7.60087e-01
 7.52047e-01
 7.44565e-01
 7.37596e-01
 7.31100e-01
 7.25041e-01
 7.19386e-01
 7.14107e-01
 7.09177e-01
 7.04574e-01
 7.00275e-01
 6.96261e-01
 6.92514e-01
 6.89020e-01
 6.85762e-01
 6.82729e-01
 6.79907e-01
 6.77286e-01
 6.74857e-01
 6.72610e-01
 6.70537e-01
 6.68631e-01
 6.66886e-01
 6.65295e-01
 6.63853e-01
 6.62555e-01
 6.61398e-01
 6.60377e-01
 6.59487e-01
 6.58725e-01
 6.58085e-01
 6.57559e-01
 6.57131e-01
 6.56756e-01
 6.56271e-01
)


51
(
 1.18048e+00
 1.09168e+00
 1.04313e+00
 1.00907e+00
 9.82310e-01
 9.59896e-01
 9.40384e-01
 9.22969e-01
 9.07165e-01
 8.92653e-01
 8.79214e-01
 8.66689e-01
 8.54958e-01
 8.43930e-01
 8.33530e-01
 8.23698e-01
 8.14384e-01