/*--------------------------------*- C++ -*----------------------------------*\
| =========                 |                                                 |
| \      /  F ield          | OpenFOAM: The Open Source CFD Toolbox           |
|  \    /   O peration      | Version:  7                                     |
|   \  /    A nd            | Web:      http://www.OpenFOAM.com               |
|    \/     M anipulation   |                                                 |
\*---------------------------------------------------------------------------*/
FoamFile 
{   version     2.0;
    format      ascii;
    class       dictionary;
    location    "constant";
    object      LDMtable;
}
// * * * * * * * * * * * * * * * * * * * * * * * * * * * * * * * * * * * * * //

SourcePV_table
5
(

51
(

5
(

51
(
 0.00000e+00
 1.16174e-28
 5.16814e-20
 9.45302e-21
 1.64889e-19
 4.30046e-16
 3.36723e-26
 4.57823e-27
 3.80165e-25
 1.99051e-24
 3.11648e-26
 3.31771e-25
 1.19565e-24
 1.00917e-25
 6.41291e-26
 2.30603e-26
 2.25389e-26
 1.66754e-26
 6.01566e-26
 1.48873e-26
 3.85823e-26
 2.77906e-26
 2.44791e-26
 2.36073e-27
 5.27891e-27
 1.32563e-26
 2.42717e-26
 1.61197e-26
 1.38482e-26
 6.56248e-28
 2.04337e-27
 1.44935e-26
 3.21152e-26
 4.46370e-27
 5.88611e-27
 1.14932e-26
 2.51312e-26
 1.57466e-26
 1.49770e-26
 1.18656e-26
 6.24418e-27
 8.81490e-27
 3.50895e-28
 6.69824e-29
 4.40071e-29
 3.14864e-29
 5.58941e-29
 2.38170e-29
 2.92931e-29
 1.98711e-29
 0.00000e+00
)


51
(
 0.00000e+00
 3.51696e-18
 7.92891e-18
 1.15615e-17
 1.43015e-17
 1.62270e-17
 1.74530e-17
 1.80957e-17
 1.82634e-17
 1.80522e-17
 1.75466e-17
 1.68187e-17
 1.59302e-17
 1.49326e-17
 1.38683e-17
 1.27724e-17
 1.16727e-17
 1.05914e-17
 9.54526e-18
 8.54710e-18
 7.60587e-18
 6.72752e-18
 5.91552e-18
 5.17126e-18
 4.49451e-18
 3.88374e-18
 3.33646e-18
 2.84943e-18
 2.41892e-18
 2.04086e-18
 1.71101e-18
 1.42509e-18
 1.17885e-18
 9.68171e-19
 7.89124e-19
 6.37996e-19
 5.11329e-19
 4.05940e-19
 3.18922e-19
 2.47650e-19
 1.89773e-19
 1.43205e-19
 1.06109e-19
 7.68828e-20
 5.41405e-20
 3.66941e-20
 2.35360e-20
 1.38244e-20
 6.87712e-21
 2.20891e-21
 0.00000e+00
)


51
(
 0.00000e+00
 1.11785e-18
 2.77363e-18
 4.34395e-18
 5.72252e-18
 6.89165e-18
 7.85793e-18
 8.63585e-18
 9.24241e-18
 9.69495e-18
 1.00103e-17
 1.02044e-17
 1.02920e-17
 1.02867e-17
 1.02012e-17
 1.00467e-17
 9.83379e-18
 9.57174e-18
 9.26905e-18
 8.93334e-18
 8.57145e-18
 8.18947e-18
 7.79283e-18
 7.38631e-18
 6.97416e-18
 6.56009e-18
 6.14734e-18
 5.73870e-18
 5.33660e-18
 4.94308e-18
 4.55987e-18
 4.18842e-18
 3.82989e-18
 3.48522e-18
 3.15513e-18
 2.84018e-18
 2.54073e-18
 2.25700e-18
 1.98909e-18
 1.73698e-18
 1.50058e-18
 1.27970e-18
 1.07409e-18
 8.83468e-19
 7.07560e-19
 5.46113e-19
 3.99007e-19
 2.66465e-19
 1.49654e-19
 5.30420e-20
 0.00000e+00
)


51
(
 0.00000e+00
 2.63903e-19
 7.46761e-19
 1.27322e-18
 1.78732e-18
 2.26763e-18
 2.70560e-18
 3.09832e-18
 3.44554e-18
 3.74839e-18
 4.00867e-18
 4.22858e-18
 4.41044e-18
 4.55664e-18
 4.66954e-18
 4.75145e-18
 4.80459e-18
 4.83111e-18
 4.83305e-18
 4.81233e-18
 4.77081e-18
 4.71020e-18
 4.63217e-18
 4.53825e-18
 4.42990e-18
 4.30850e-18
 4.17534e-18
 4.03164e-18
 3.87855e-18
 3.71713e-18
 3.54842e-18
 3.37334e-18
 3.19281e-18
 3.00767e-18
 2.81871e-18
 2.62669e-18
 2.43233e-18
 2.23630e-18
 2.03927e-18
 1.84189e-18
 1.64479e-18
 1.44863e-18
 1.25410e-18
 1.06199e-18
 8.73233e-19
 6.89064e-19
 5.11281e-19
 3.42826e-19
 1.89236e-19
 6.29293e-20
 0.00000e+00
)


51
(
 0.00000e+00
 0.00000e+00
 0.00000e+00
 0.00000e+00
 0.00000e+00
 0.00000e+00
 0.00000e+00
 0.00000e+00
 0.00000e+00
 0.00000e+00
 0.00000e+00
 0.00000e+00
 0.00000e+00
 0.00000e+00
 0.00000e+00
 0.00000e+00
 0.00000e+00
 0.00000e+00
 0.00000e+00
 0.00000e+00
 0.00000e+00
 0.00000e+00
 0.00000e+00
 0.00000e+00
 0.00000e+00
 0.00000e+00
 0.00000e+00
 0.00000e+00
 0.00000e+00
 0.00000e+00
 0.00000e+00
 0.00000e+00
 0.00000e+00
 0.00000e+00
 0.00000e+00
 0.00000e+00
 0.00000e+00
 0.00000e+00
 0.00000e+00
 0.00000e+00
 0.00000e+00
 0.00000e+00
 0.00000e+00
 0.00000e+00
 0.00000e+00
 0.00000e+00
 0.00000e+00
 0.00000e+00
 0.00000e+00
 0.00000e+00
 0.00000e+00
)


)


5
(

51
(
 0.00000e+00
 5.24148e-17
 5.86405e-04
 4.69425e-03
 7.44462e-05
 4.35770e-06
 1.81683e-09
 1.67385e-08
 1.14000e-07
 6.08283e-07
 2.43671e-06
 7.51639e-06
 1.47083e-05
 1.82782e-05
 1.76585e-06
 1.33561e-06
 1.03295e-06
 8.13607e-07
 6.50114e-07
 5.25395e-07
 4.28447e-07
 3.51950e-07
 2.91355e-07
 2.43154e-07
 2.03902e-07
 1.72339e-07
 1.46540e-07
 1.25396e-07
 1.07864e-07
 9.33294e-08
 8.09033e-08
 7.04498e-08
 6.13795e-08
 5.34154e-08
 4.64351e-08
 4.02779e-08
 3.47632e-08
 2.98093e-08
 2.53509e-08
 2.13361e-08
 1.77235e-08
 1.44800e-08
 1.15782e-08
 8.99263e-09
 6.69383e-09
 4.79960e-09
 3.20023e-09
 1.83832e-09
 9.14807e-10
 3.31984e-10
 0.00000e+00
)


51
(
 0.00000e+00
 5.53087e-05
 1.23638e-04
 1.78867e-04
 2.19353e-04
 2.46455e-04
 2.62138e-04
 2.68409e-04
 2.67152e-04
 2.60057e-04
 2.48602e-04
 2.34054e-04
 2.17475e-04
 1.99740e-04
 1.81553e-04
 1.63468e-04
 1.45907e-04
 1.29178e-04
 1.13496e-04
 9.89972e-05
 8.57531e-05
 7.37857e-05
 6.30780e-05
 5.35841e-05
 4.52374e-05
 3.79576e-05
 3.16563e-05
 2.62416e-05
 2.16212e-05
 1.77055e-05
 1.44091e-05
 1.16523e-05
 9.36172e-06
 7.47091e-06
 5.92020e-06
 4.65675e-06
 3.63418e-06
 2.81217e-06
 2.15599e-06
 1.63596e-06
 1.22692e-06
 9.07748e-07
 6.60801e-07
 4.71486e-07
 3.27815e-07
 2.20027e-07
 1.40244e-07
 8.21891e-08
 4.09961e-08
 1.33089e-08
 0.00000e+00
)


51
(
 0.00000e+00
 1.71318e-05
 4.22465e-05
 6.58849e-05
 8.64884e-05
 1.03823e-04
 1.18012e-04
 1.29296e-04
 1.37947e-04
 1.44242e-04
 1.48449e-04
 1.50820e-04
 1.51587e-04
 1.50968e-04
 1.49159e-04
 1.46339e-04
 1.42671e-04
 1.38301e-04
 1.33363e-04
 1.27974e-04
 1.22239e-04
 1.16252e-04
 1.10096e-04
 1.03843e-04
 9.75568e-05
 9.12921e-05
 8.50963e-05
 7.90099e-05
 7.30668e-05
 6.72955e-05
 6.17191e-05
 5.63561e-05
 5.12211e-05
 4.63247e-05
 4.16745e-05
 3.72750e-05
 3.31284e-05
 2.92345e-05
 2.55915e-05
 2.21957e-05
 1.90423e-05
 1.61255e-05
 1.34384e-05
 1.09739e-05
 8.72485e-06
 6.68442e-06
 4.84746e-06
 3.21287e-06
 1.79074e-06
 6.29863e-07
 0.00000e+00
)


51
(
 0.00000e+00
 4.02115e-06
 1.13276e-05
 1.92585e-05
 2.69799e-05
 3.41768e-05
 4.07261e-05
 4.65873e-05
 5.17593e-05
 5.62608e-05
 6.01205e-05
 6.33721e-05
 6.60518e-05
 6.81958e-05
 6.98403e-05
 7.10204e-05
 7.17701e-05
 7.21218e-05
 7.21065e-05
 7.17534e-05
 7.10906e-05
 7.01442e-05
 6.89392e-05
 6.74990e-05
 6.58456e-05
 6.39999e-05
 6.19815e-05
 5.98087e-05
 5.74989e-05
 5.50683e-05
 5.25323e-05
 4.99051e-05
 4.72004e-05
 4.44308e-05
 4.16084e-05
 3.87445e-05
 3.58498e-05
 3.29347e-05
 3.00090e-05
 2.70822e-05
 2.41641e-05
 2.12642e-05
 1.83929e-05
 1.55617e-05
 1.27844e-05
 1.00789e-05
 7.47156e-06
 5.00512e-06
 2.76012e-06
 9.16965e-07
 0.00000e+00
)


51
(
 0.00000e+00
 0.00000e+00
 0.00000e+00
 0.00000e+00
 0.00000e+00
 0.00000e+00
 0.00000e+00
 0.00000e+00
 0.00000e+00
 0.00000e+00
 0.00000e+00
 0.00000e+00
 0.00000e+00
 0.00000e+00
 0.00000e+00
 0.00000e+00
 0.00000e+00
 0.00000e+00
 0.00000e+00
 0.00000e+00
 0.00000e+00
 0.00000e+00
 0.00000e+00
 0.00000e+00
 0.00000e+00
 0.00000e+00
 0.00000e+00
 0.00000e+00
 0.00000e+00
 0.00000e+00
 0.00000e+00
 0.00000e+00
 0.00000e+00
 0.00000e+00
 0.00000e+00
 0.00000e+00
 0.00000e+00
 0.00000e+00
 0.00000e+00
 0.00000e+00
 0.00000e+00
 0.00000e+00
 0.00000e+00
 0.00000e+00
 0.00000e+00
 0.00000e+00
 0.00000e+00
 0.00000e+00
 0.00000e+00
 0.00000e+00
 0.00000e+00
)


)


5
(

51
(
 0.00000e+00
 1.04830e-16
 5.98585e-03
 4.79176e-02
 7.59925e-04
 4.46931e-05
 3.63365e-09
 3.34771e-08
 2.28001e-07
 1.21657e-06
 4.87342e-06
 1.50328e-05
 2.94166e-05
 3.65564e-05
 3.53171e-06
 2.67123e-06
 2.06589e-06
 1.62721e-06
 1.30023e-06
 1.05079e-06
 8.56895e-07
 7.03900e-07
 5.82710e-07
 4.86308e-07
 4.07804e-07
 3.44679e-07
 2.93081e-07
 2.50792e-07
 2.15729e-07
 1.86659e-07
 1.61807e-07
 1.40900e-07
 1.22759e-07
 1.06831e-07
 9.28702e-08
 8.05558e-08
 6.95263e-08
 5.96185e-08
 5.07018e-08
 4.26723e-08
 3.54471e-08
 2.89601e-08
 2.31564e-08
 1.79853e-08
 1.33877e-08
 9.59919e-09
 6.40047e-09
 3.67663e-09
 1.82961e-09
 6.63968e-10
 0.00000e+00
)


51
(
 0.00000e+00
 5.58273e-04
 1.24198e-03
 1.79207e-03
 2.19366e-03
 2.46109e-03
 2.61443e-03
 2.67405e-03
 2.65891e-03
 2.58599e-03
 2.47007e-03
 2.32378e-03
 2.15767e-03
 1.98041e-03
 1.79895e-03
 1.61874e-03
 1.44392e-03
 1.27753e-03
 1.12166e-03
 9.77615e-04
 8.46105e-04
 7.27325e-04
 6.21097e-04
 5.26955e-04
 4.44233e-04
 3.72130e-04
 3.09765e-04
 2.56221e-04
 2.10582e-04
 1.71953e-04
 1.39484e-04
 1.12379e-04
 8.99079e-05
 7.14060e-05
 5.62783e-05
 4.39967e-05
 3.40981e-05
 2.61798e-05
 1.98947e-05
 1.49468e-05
 1.10851e-05
 8.09906e-06
 5.81321e-06
 4.08265e-06
 2.78867e-06
 1.83488e-06
 1.14374e-06
 6.53690e-07
 3.16922e-07
 9.94597e-08
 0.00000e+00
)


51
(
 0.00000e+00
 1.73354e-04
 4.25563e-04
 6.62124e-04
 8.67912e-04
 1.04082e-03
 1.18220e-03
 1.29453e-03
 1.38058e-03
 1.44314e-03
 1.48489e-03
 1.50836e-03
 1.51589e-03
 1.50962e-03
 1.49152e-03
 1.46338e-03
 1.42681e-03
 1.38326e-03
 1.33406e-03
 1.28037e-03
 1.22323e-03
 1.16358e-03
 1.10223e-03
 1.03990e-03
 9.77225e-04
 9.14746e-04
 8.52935e-04
 7.92192e-04
 7.32857e-04
 6.75212e-04
 6.19488e-04
 5.65873e-04
 5.14510e-04
 4.65509e-04
 4.18946e-04
 3.74870e-04
 3.33303e-04
 2.94248e-04
 2.57686e-04
 2.23585e-04
 1.91899e-04
 1.62570e-04
 1.35535e-04
 1.10724e-04
 8.80666e-05
 6.74974e-05
 4.89671e-05
 3.24672e-05
 1.81025e-05
 6.36919e-06
 0.00000e+00
)


51
(
 0.00000e+00
 4.08586e-05
 1.14644e-04
 1.94473e-04
 2.72067e-04
 3.44336e-04
 4.10084e-04
 4.68930e-04
 5.20877e-04
 5.66117e-04
 6.04942e-04
 6.37691e-04
 6.64721e-04
 6.86397e-04
 7.03077e-04
 7.15111e-04
 7.22834e-04
 7.26570e-04
 7.26624e-04
 7.23288e-04
 7.16838e-04
 7.07535e-04
 6.95626e-04
 6.81343e-04
 6.64906e-04
 6.46520e-04
 6.26381e-04
 6.04670e-04
 5.81562e-04
 5.57216e-04
 5.31786e-04
 5.05416e-04
 4.78239e-04
 4.50383e-04
 4.21969e-04
 3.93109e-04
 3.63912e-04
 3.34482e-04
 3.04917e-04
 2.75314e-04
 2.45771e-04
 2.16385e-04
 1.87261e-04
 1.58516e-04
 1.30292e-04
 1.02772e-04
 7.62240e-05
 5.10877e-05
 2.81867e-05
 9.36854e-06
 0.00000e+00
)


51
(
 0.00000e+00
 0.00000e+00
 0.00000e+00
 0.00000e+00
 0.00000e+00
 0.00000e+00
 0.00000e+00
 0.00000e+00
 0.00000e+00
 0.00000e+00
 0.00000e+00
 0.00000e+00
 0.00000e+00
 0.00000e+00
 0.00000e+00
 0.00000e+00
 0.00000e+00
 0.00000e+00
 0.00000e+00
 0.00000e+00
 0.00000e+00
 0.00000e+00
 0.00000e+00
 0.00000e+00
 0.00000e+00
 0.00000e+00
 0.00000e+00
 0.00000e+00
 0.00000e+00
 0.00000e+00
 0.00000e+00
 0.00000e+00
 0.00000e+00
 0.00000e+00
 0.00000e+00
 0.00000e+00
 0.00000e+00
 0.00000e+00
 0.00000e+00
 0.00000e+00
 0.00000e+00
 0.00000e+00
 0.00000e+00
 0.00000e+00
 0.00000e+00
 0.00000e+00
 0.00000e+00
 0.00000e+00
 0.00000e+00
 0.00000e+00
 0.00000e+00
)


)


5
(

51
(
 0.00000e+00
 1.57244e-16
 1.66236e-02
 1.33074e-01
 2.11042e-03
 1.24741e-04
 5.45048e-09
 5.02156e-08
 3.42001e-07
 1.82485e-06
 7.31014e-06
 2.25492e-05
 4.41249e-05
 5.48346e-05
 5.29756e-06
 4.00684e-06
 3.09884e-06
 2.44082e-06
 1.95034e-06
 1.57619e-06
 1.28534e-06
 1.05585e-06
 8.74065e-07
 7.29462e-07
 6.11706e-07
 5.17018e-07
 4.39621e-07
 3.76187e-07
 3.23593e-07
 2.79988e-07
 2.42710e-07
 2.11349e-07
 1.84138e-07
 1.60246e-07
 1.39305e-07
 1.20834e-07
 1.04289e-07
 8.94278e-08
 7.60527e-08
 6.40084e-08
 5.31706e-08
 4.34401e-08
 3.47346e-08
 2.69779e-08
 2.00815e-08
 1.43988e-08
 9.60070e-09
 5.51495e-09
 2.74442e-09
 9.95952e-10
 0.00000e+00
)


51
(
 0.00000e+00
 1.54455e-03
 3.41853e-03
 4.91878e-03
 6.00951e-03
 6.73246e-03
 7.14391e-03
 7.30034e-03
 7.25402e-03
 7.05142e-03
 6.73288e-03
 6.33266e-03
 5.87937e-03
 5.39637e-03
 4.90241e-03
 4.41215e-03
 3.93671e-03
 3.48421e-03
 3.06027e-03
 2.66843e-03
 2.31054e-03
 1.98716e-03
 1.69779e-03
 1.44120e-03
 1.21560e-03
 1.01882e-03
 8.48509e-04
 7.02185e-04
 5.77376e-04
 4.71665e-04
 3.82753e-04
 3.08483e-04
 2.46872e-04
 1.96115e-04
 1.54592e-04
 1.20865e-04
 9.36716e-05
 7.19106e-05
 5.46339e-05
 4.10307e-05
 3.04137e-05
 2.22050e-05
 1.59231e-05
 1.11697e-05
 7.61838e-06
 5.00369e-06
 3.11213e-06
 1.77394e-06
 8.57214e-07
 2.67867e-07
 0.00000e+00
)


51
(
 0.00000e+00
 4.81315e-04
 1.17608e-03
 1.82536e-03
 2.38904e-03
 2.86201e-03
 3.24841e-03
 3.55519e-03
 3.79009e-03
 3.96084e-03
 4.07483e-03
 4.13898e-03
 4.15968e-03
 4.14280e-03
 4.09369e-03
 4.01720e-03
 3.91774e-03
 3.79926e-03
 3.66531e-03
 3.51907e-03
 3.36338e-03
 3.20076e-03
 3.03342e-03
 2.86331e-03
 2.69215e-03
 2.52142e-03
 2.35240e-03
 2.18618e-03
 2.02370e-03
 1.86572e-03
 1.71288e-03
 1.56570e-03
 1.42458e-03
 1.28983e-03
 1.16167e-03
 1.04023e-03
 9.25591e-04
 8.17767e-04
 7.16722e-04
 6.22374e-04
 5.34608e-04
 4.53277e-04
 3.78215e-04
 3.09242e-04
 2.46174e-04
 1.88841e-04
 1.37119e-04
 9.09963e-05
 5.07818e-05
 1.78831e-05
 0.00000e+00
)


51
(
 0.00000e+00
 1.13979e-04
 3.18509e-04
 5.39048e-04
 7.53052e-04
 9.52211e-04
 1.13336e-03
 1.29550e-03
 1.43870e-03
 1.56350e-03
 1.67071e-03
 1.76126e-03
 1.83613e-03
 1.89633e-03
 1.94282e-03
 1.97657e-03
 1.99847e-03
 2.00942e-03
 2.01023e-03
 2.00172e-03
 1.98461e-03
 1.95963e-03
 1.92743e-03
 1.88866e-03
 1.84391e-03
 1.79374e-03
 1.73868e-03
 1.67923e-03
 1.61584e-03
 1.54898e-03
 1.47905e-03
 1.40644e-03
 1.33152e-03
 1.25464e-03
 1.17613e-03
 1.09630e-03
 1.01545e-03
 9.33862e-04
 8.51810e-04
 7.69562e-04
 6.87387e-04
 6.05559e-04
 5.24371e-04
 4.44148e-04
 3.65288e-04
 2.88309e-04
 2.13965e-04
 1.43494e-04
 7.92178e-05
 2.63452e-05
 0.00000e+00
)


51
(
 0.00000e+00
 0.00000e+00
 0.00000e+00
 0.00000e+00
 0.00000e+00
 0.00000e+00
 0.00000e+00
 0.00000e+00
 0.00000e+00
 0.00000e+00
 0.00000e+00
 0.00000e+00
 0.00000e+00
 0.00000e+00
 0.00000e+00
 0.00000e+00
 0.00000e+00
 0.00000e+00
 0.00000e+00
 0.00000e+00
 0.00000e+00
 0.00000e+00
 0.00000e+00
 0.00000e+00
 0.00000e+00
 0.00000e+00
 0.00000e+00
 0.00000e+00
 0.00000e+00
 0.00000e+00
 0.00000e+00
 0.00000e+00
 0.00000e+00
 0.00000e+00
 0.00000e+00
 0.00000e+00
 0.00000e+00
 0.00000e+00
 0.00000e+00
 0.00000e+00
 0.00000e+00
 0.00000e+00
 0.00000e+00
 0.00000e+00
 0.00000e+00
 0.00000e+00
 0.00000e+00
 0.00000e+00
 0.00000e+00
 0.00000e+00
 0.00000e+00
)


)


5
(

51
(
 0.00000e+00
 2.09659e-16
 3.19950e-02
 2.56125e-01
 4.06189e-03
 2.41358e-04
 7.26731e-09
 6.69541e-08
 4.56002e-07
 2.43313e-06
 9.74685e-06
 3.00656e-05
 5.88332e-05
 7.31128e-05
 7.06341e-06
 5.34245e-06
 4.13178e-06
 3.25443e-06
 2.60045e-06
 2.10158e-06
 1.71379e-06
 1.40780e-06
 1.16542e-06
 9.72616e-07
 8.15608e-07
 6.89357e-07
 5.86162e-07
 5.01583e-07
 4.31457e-07
 3.73317e-07
 3.23613e-07
 2.81799e-07
 2.45518e-07
 2.13662e-07
 1.85740e-07
 1.61112e-07
 1.39053e-07
 1.19237e-07
 1.01404e-07
 8.53446e-08
 7.08942e-08
 5.79202e-08
 4.63128e-08
 3.59705e-08
 2.67753e-08
 1.91984e-08
 1.28009e-08
 7.35326e-09
 3.65923e-09
 1.32794e-09
 0.00000e+00
)


51
(
 0.00000e+00
 2.97829e-03
 6.55482e-03
 9.40147e-03
 1.14610e-02
 1.28188e-02
 1.35852e-02
 1.38695e-02
 1.37718e-02
 1.33806e-02
 1.27722e-02
 1.20113e-02
 1.11516e-02
 1.02369e-02
 9.30217e-03
 8.37483e-03
 7.47565e-03
 6.61975e-03
 5.81764e-03
 5.07591e-03
 4.39809e-03
 3.78520e-03
 3.23638e-03
 2.74933e-03
 2.32073e-03
 1.94657e-03
 1.62244e-03
 1.34370e-03
 1.10572e-03
 9.03974e-04
 7.34126e-04
 5.92118e-04
 4.74205e-04
 3.76977e-04
 2.97367e-04
 2.32647e-04
 1.80419e-04
 1.38590e-04
 1.05354e-04
 7.91641e-05
 5.87080e-05
 4.28810e-05
 3.07608e-05
 2.15840e-05
 1.47242e-05
 9.67143e-06
 6.01491e-06
 3.42774e-06
 1.65562e-06
 5.16926e-07
 0.00000e+00
)


51
(
 0.00000e+00
 9.31743e-04
 2.26554e-03
 3.50706e-03
 4.58237e-03
 5.48323e-03
 6.21833e-03
 6.80147e-03
 7.24773e-03
 7.57204e-03
 7.78857e-03
 7.91054e-03
 7.95014e-03
 7.91852e-03
 7.82583e-03
 7.68124e-03
 7.49307e-03
 7.26879e-03
 7.01510e-03
 6.73800e-03
 6.44283e-03
 6.13432e-03
 5.81667e-03
 5.49356e-03
 5.16822e-03
 4.84347e-03
 4.52171e-03
 4.20504e-03
 3.89521e-03
 3.59371e-03
 3.30175e-03
 3.02034e-03
 2.75025e-03
 2.49209e-03
 2.24628e-03
 2.01313e-03
 1.79278e-03
 1.58530e-03
 1.39063e-03
 1.20864e-03
 1.03913e-03
 8.81855e-04
 7.36503e-04
 6.02755e-04
 4.80283e-04
 3.68782e-04
 2.68035e-04
 1.78051e-04
 9.94626e-05
 3.50611e-05
 0.00000e+00
)


51
(
 0.00000e+00
 2.21741e-04
 6.17021e-04
 1.04174e-03
 1.45314e-03
 1.83566e-03
 2.18345e-03
 2.49480e-03
 2.76985e-03
 3.00972e-03
 3.21598e-03
 3.39043e-03
 3.53494e-03
 3.65141e-03
 3.74170e-03
 3.80762e-03
 3.85089e-03
 3.87319e-03
 3.87608e-03
 3.86107e-03
 3.82956e-03
 3.78290e-03
 3.72235e-03
 3.64911e-03
 3.56431e-03
 3.46900e-03
 3.36418e-03
 3.25079e-03
 3.12973e-03
 3.00183e-03
 2.86788e-03
 2.72861e-03
 2.58474e-03
 2.43691e-03
 2.28577e-03
 2.13191e-03
 1.97588e-03
 1.81824e-03
 1.65952e-03
 1.50023e-03
 1.34089e-03
 1.18203e-03
 1.02422e-03
 8.68099e-04
 7.14437e-04
 5.64253e-04
 4.19033e-04
 2.81205e-04
 1.55345e-04
 5.16947e-05
 0.00000e+00
)


51
(
 0.00000e+00
 0.00000e+00
 0.00000e+00
 0.00000e+00
 0.00000e+00
 0.00000e+00
 0.00000e+00
 0.00000e+00
 0.00000e+00
 0.00000e+00
 0.00000e+00
 0.00000e+00
 0.00000e+00
 0.00000e+00
 0.00000e+00
 0.00000e+00
 0.00000e+00
 0.00000e+00
 0.00000e+00
 0.00000e+00
 0.00000e+00
 0.00000e+00
 0.00000e+00
 0.00000e+00
 0.00000e+00
 0.00000e+00
 0.00000e+00
 0.00000e+00
 0.00000e+00
 0.00000e+00
 0.00000e+00
 0.00000e+00
 0.00000e+00
 0.00000e+00
 0.00000e+00
 0.00000e+00
 0.00000e+00
 0.00000e+00
 0.00000e+00
 0.00000e+00
 0.00000e+00
 0.00000e+00
 0.00000e+00
 0.00000e+00
 0.00000e+00
 0.00000e+00
 0.00000e+00
 0.00000e+00
 0.00000e+00
 0.00000e+00
 0.00000e+00
)


)


5
(

51
(
 0.00000e+00
 1.28326e-15
 5.15959e-02
 4.13032e-01
 6.55028e-03
 3.91403e-04
 9.08413e-09
 8.36926e-08
 5.70002e-07
 3.04141e-06
 1.21836e-05
 3.75819e-05
 7.35415e-05
 9.13910e-05
 8.82926e-06
 6.67807e-06
 5.16473e-06
 4.06804e-06
 3.25057e-06
 2.62698e-06
 2.14224e-06
 1.75975e-06
 1.45678e-06
 1.21577e-06
 1.01951e-06
 8.61697e-07
 7.32702e-07
 6.26979e-07
 5.39321e-07
 4.66647e-07
 4.04516e-07
 3.52249e-07
 3.06897e-07
 2.67077e-07
 2.32176e-07
 2.01389e-07
 1.73816e-07
 1.49046e-07
 1.26755e-07
 1.06681e-07
 8.86177e-08
 7.24002e-08
 5.78911e-08
 4.49631e-08
 3.34691e-08
 2.39980e-08
 1.60012e-08
 9.19158e-09
 4.57403e-09
 1.65992e-09
 0.00000e+00
)


51
(
 0.00000e+00
 4.85225e-03
 1.06147e-02
 1.51648e-02
 1.84332e-02
 2.05705e-02
 2.17621e-02
 2.21876e-02
 2.20091e-02
 2.13687e-02
 2.03879e-02
 1.91689e-02
 1.77962e-02
 1.63386e-02
 1.48509e-02
 1.33758e-02
 1.19458e-02
 1.05844e-02
 9.30818e-03
 8.12741e-03
 7.04763e-03
 6.07054e-03
 5.19482e-03
 4.41693e-03
 3.73172e-03
 3.13292e-03
 2.61363e-03
 2.16660e-03
 1.78452e-03
 1.46026e-03
 1.18697e-03
 9.58238e-04
 7.68108e-04
 6.11164e-04
 4.82524e-04
 3.77836e-04
 2.93266e-04
 2.25466e-04
 1.71539e-04
 1.29002e-04
 9.57447e-05
 6.99876e-05
 5.02437e-05
 3.52803e-05
 2.40841e-05
 1.58295e-05
 9.85050e-06
 5.61639e-06
 2.71384e-06
 8.47516e-07
 0.00000e+00
)


51
(
 0.00000e+00
 1.52392e-03
 3.68822e-03
 5.69341e-03
 7.42442e-03
 8.87074e-03
 1.00483e-02
 1.09805e-02
 1.16925e-02
 1.22088e-02
 1.25528e-02
 1.27457e-02
 1.28072e-02
 1.27553e-02
 1.26062e-02
 1.23745e-02
 1.20734e-02
 1.17148e-02
 1.13094e-02
 1.08666e-02
 1.03949e-02
 9.90180e-03
 9.39386e-03
 8.87697e-03
 8.35622e-03
 7.83607e-03
 7.32037e-03
 6.81243e-03
 6.31506e-03
 5.83063e-03
 5.36111e-03
 4.90809e-03
 4.47287e-03
 4.05642e-03
 3.65947e-03
 3.28252e-03
 2.92587e-03
 2.58962e-03
 2.27374e-03
 1.97805e-03
 1.70227e-03
 1.44603e-03
 1.20888e-03
 9.90346e-04
 7.89921e-04
 6.07159e-04
 4.41749e-04
 2.93755e-04
 1.64270e-04
 5.79671e-05
 0.00000e+00
)


51
(
 0.00000e+00
 3.64259e-04
 1.00987e-03
 1.70125e-03
 2.36962e-03
 2.99029e-03
 3.55419e-03
 4.05876e-03
 4.50443e-03
 4.89313e-03
 5.22748e-03
 5.51044e-03
 5.74508e-03
 5.93448e-03
 6.08166e-03
 6.18954e-03
 6.26090e-03
 6.29841e-03
 6.30459e-03
 6.28186e-03
 6.23246e-03
 6.15854e-03
 6.06212e-03
 5.94510e-03
 5.80928e-03
 5.65634e-03
 5.48788e-03
 5.30540e-03
 5.11031e-03
 4.90393e-03
 4.68754e-03
 4.46231e-03
 4.22935e-03
 3.98974e-03
 3.74446e-03
 3.49448e-03
 3.24071e-03
 2.98401e-03
 2.72525e-03
 2.46525e-03
 2.20485e-03
 1.94493e-03
 1.68639e-03
 1.43031e-03
 1.17794e-03
 9.30963e-04
 6.91842e-04
 4.64604e-04
 2.56833e-04
 8.55229e-05
 0.00000e+00
)


51
(
 0.00000e+00
 0.00000e+00
 0.00000e+00
 0.00000e+00
 0.00000e+00
 0.00000e+00
 0.00000e+00
 0.00000e+00
 0.00000e+00
 0.00000e+00
 0.00000e+00
 0.00000e+00
 0.00000e+00
 0.00000e+00
 0.00000e+00
 0.00000e+00
 0.00000e+00
 0.00000e+00
 0.00000e+00
 0.00000e+00
 0.00000e+00
 0.00000e+00
 0.00000e+00
 0.00000e+00
 0.00000e+00
 0.00000e+00
 0.00000e+00
 0.00000e+00
 0.00000e+00
 0.00000e+00
 0.00000e+00
 0.00000e+00
 0.00000e+00
 0.00000e+00
 0.00000e+00
 0.00000e+00
 0.00000e+00
 0.00000e+00
 0.00000e+00
 0.00000e+00
 0.00000e+00
 0.00000e+00
 0.00000e+00
 0.00000e+00
 0.00000e+00
 0.00000e+00
 0.00000e+00
 0.00000e+00
 0.00000e+00
 0.00000e+00
 0.00000e+00
)


)


5
(

51
(
 0.00000e+00
 1.70814e-14
 7.49215e-02
 5.99758e-01
 9.51156e-03
 5.71731e-04
 1.09010e-08
 1.00431e-07
 6.84002e-07
 3.64970e-06
 1.46203e-05
 4.50983e-05
 8.82497e-05
 1.09669e-04
 1.05951e-05
 8.01368e-06
 6.19768e-06
 4.88164e-06
 3.90068e-06
 3.15237e-06
 2.57068e-06
 2.11170e-06
 1.74813e-06
 1.45892e-06
 1.22341e-06
 1.03404e-06
 8.79242e-07
 7.52375e-07
 6.47186e-07
 5.59976e-07
 4.85420e-07
 4.22699e-07
 3.68277e-07
 3.20492e-07
 2.78611e-07
 2.41667e-07
 2.08579e-07
 1.78856e-07
 1.52105e-07
 1.28017e-07
 1.06341e-07
 8.68803e-08
 6.94693e-08
 5.39558e-08
 4.01630e-08
 2.87976e-08
 1.92014e-08
 1.10299e-08
 5.48884e-09
 1.99190e-09
 0.00000e+00
)


51
(
 0.00000e+00
 7.17286e-03
 1.55879e-02
 2.21663e-02
 2.68468e-02
 2.98752e-02
 3.15359e-02
 3.20976e-02
 3.17990e-02
 3.08461e-02
 2.94134e-02
 2.76465e-02
 2.56652e-02
 2.35665e-02
 2.14274e-02
 1.93080e-02
 1.72539e-02
 1.52981e-02
 1.34640e-02
 1.17659e-02
 1.02119e-02
 8.80439e-03
 7.54163e-03
 6.41872e-03
 5.42846e-03
 4.56208e-03
 3.80983e-03
 3.16146e-03
 2.60663e-03
 2.13519e-03
 1.73737e-03
 1.40400e-03
 1.12656e-03
 8.97281e-04
 7.09127e-04
 5.55828e-04
 4.31846e-04
 3.32334e-04
 2.53093e-04
 1.90518e-04
 1.41538e-04
 1.03561e-04
 7.44163e-05
 5.23029e-05
 3.57375e-05
 2.35101e-05
 1.46429e-05
 8.35591e-06
 4.04079e-06
 1.26278e-06
 0.00000e+00
)


51
(
 0.00000e+00
 2.26169e-03
 5.44895e-03
 8.38607e-03
 1.09108e-02
 1.30126e-02
 1.47181e-02
 1.60641e-02
 1.70889e-02
 1.78295e-02
 1.83203e-02
 1.85931e-02
 1.86767e-02
 1.85970e-02
 1.83777e-02
 1.80400e-02
 1.76028e-02
 1.70831e-02
 1.64961e-02
 1.58555e-02
 1.51732e-02
 1.44599e-02
 1.37252e-02
 1.29772e-02
 1.22233e-02
 1.14699e-02
 1.07224e-02
 9.98568e-03
 9.26367e-03
 8.55982e-03
 7.87697e-03
 7.21748e-03
 6.58321e-03
 5.97562e-03
 5.39581e-03
 4.84455e-03
 4.32231e-03
 3.82931e-03
 3.36555e-03
 2.93084e-03
 2.52481e-03
 2.14698e-03
 1.79678e-03
 1.47353e-03
 1.17660e-03
 9.05360e-04
 6.59440e-04
 4.39006e-04
 2.45771e-04
 8.68236e-05
 0.00000e+00
)


51
(
 0.00000e+00
 5.42737e-04
 1.49980e-03
 2.52136e-03
 3.50675e-03
 4.42037e-03
 5.24943e-03
 5.99059e-03
 6.64481e-03
 7.21516e-03
 7.70566e-03
 8.12078e-03
 8.46514e-03
 8.74331e-03
 8.95975e-03
 9.11876e-03
 9.22444e-03
 9.28068e-03
 9.29118e-03
 9.25941e-03
 9.18868e-03
 9.08207e-03
 8.94251e-03
 8.77275e-03
 8.57538e-03
 8.35282e-03
 8.10738e-03
 7.84121e-03
 7.55634e-03
 7.25470e-03
 6.93807e-03
 6.60818e-03
 6.26662e-03
 5.91492e-03
 5.55453e-03
 5.18683e-03
 4.81312e-03
 4.43468e-03
 4.05275e-03
 3.66853e-03
 3.28326e-03
 2.89819e-03
 2.51471e-03
 2.13436e-03
 1.75902e-03
 1.39123e-03
 1.03464e-03
 6.95318e-04
 3.84647e-04
 1.28171e-04
 0.00000e+00
)


51
(
 0.00000e+00
 0.00000e+00
 0.00000e+00
 0.00000e+00
 0.00000e+00
 0.00000e+00
 0.00000e+00
 0.00000e+00
 0.00000e+00
 0.00000e+00
 0.00000e+00
 0.00000e+00
 0.00000e+00
 0.00000e+00
 0.00000e+00
 0.00000e+00
 0.00000e+00
 0.00000e+00
 0.00000e+00
 0.00000e+00
 0.00000e+00
 0.00000e+00
 0.00000e+00
 0.00000e+00
 0.00000e+00
 0.00000e+00
 0.00000e+00
 0.00000e+00
 0.00000e+00
 0.00000e+00
 0.00000e+00
 0.00000e+00
 0.00000e+00
 0.00000e+00
 0.00000e+00
 0.00000e+00
 0.00000e+00
 0.00000e+00
 0.00000e+00
 0.00000e+00
 0.00000e+00
 0.00000e+00
 0.00000e+00
 0.00000e+00
 0.00000e+00
 0.00000e+00
 0.00000e+00
 0.00000e+00
 0.00000e+00
 0.00000e+00
 0.00000e+00
)


)


5
(

51
(
 0.00000e+00
 8.67367e-14
 1.01468e-01
 8.12263e-01
 1.28817e-02
 7.79199e-04
 1.27178e-08
 1.17170e-07
 7.98003e-07
 4.25798e-06
 1.70570e-05
 5.26147e-05
 1.02958e-04
 1.27947e-04
 1.23610e-05
 9.34929e-06
 7.23062e-06
 5.69525e-06
 4.55080e-06
 3.67777e-06
 2.99913e-06
 2.46365e-06
 2.03949e-06
 1.70208e-06
 1.42731e-06
 1.20638e-06
 1.02578e-06
 8.77771e-07
 7.55050e-07
 6.53306e-07
 5.66323e-07
 4.93148e-07
 4.29656e-07
 3.73908e-07
 3.25046e-07
 2.81945e-07
 2.43342e-07
 2.08665e-07
 1.77456e-07
 1.49353e-07
 1.24065e-07
 1.01360e-07
 8.10475e-08
 6.29484e-08
 4.68568e-08
 3.35972e-08
 2.24016e-08
 1.28682e-08
 6.40365e-09
 2.32389e-09
 0.00000e+00
)


51
(
 0.00000e+00
 9.93855e-03
 2.14414e-02
 3.03320e-02
 3.65905e-02
 4.05914e-02
 4.27447e-02
 4.34267e-02
 4.29654e-02
 4.16397e-02
 3.96835e-02
 3.72903e-02
 3.46181e-02
 3.17946e-02
 2.89208e-02
 2.60752e-02
 2.33176e-02
 2.06914e-02
 1.82271e-02
 1.59439e-02
 1.38523e-02
 1.19558e-02
 1.02524e-02
 8.73570e-03
 7.39641e-03
 6.22309e-03
 5.20293e-03
 4.32244e-03
 3.56795e-03
 2.92596e-03
 2.38351e-03
 1.92832e-03
 1.54900e-03
 1.23511e-03
 9.77189e-04
 7.66779e-04
 5.96390e-04
 4.59459e-04
 3.50285e-04
 2.63964e-04
 1.96313e-04
 1.43793e-04
 1.03437e-04
 7.27780e-05
 4.97809e-05
 3.27835e-05
 2.04403e-05
 1.16763e-05
 5.65222e-06
 1.76805e-06
 0.00000e+00
)


51
(
 0.00000e+00
 3.14750e-03
 7.54612e-03
 1.15755e-02
 1.50227e-02
 1.78806e-02
 2.01911e-02
 2.20080e-02
 2.33866e-02
 2.43788e-02
 2.50329e-02
 2.53926e-02
 2.54974e-02
 2.53829e-02
 2.50811e-02
 2.46203e-02
 2.40262e-02
 2.33216e-02
 2.25268e-02
 2.16598e-02
 2.07367e-02
 1.97718e-02
 1.87776e-02
 1.77652e-02
 1.67443e-02
 1.57234e-02
 1.47098e-02
 1.37099e-02
 1.27291e-02
 1.17720e-02
 1.08426e-02
 9.94393e-03
 9.07862e-03
 8.24871e-03
 7.45573e-03
 6.70080e-03
 5.98463e-03
 5.30760e-03
 4.66980e-03
 4.07103e-03
 3.51091e-03
 2.98886e-03
 2.50416e-03
 2.05601e-03
 1.64360e-03
 1.26619e-03
 9.23354e-04
 6.15433e-04
 3.44954e-04
 1.22006e-04
 0.00000e+00
)


51
(
 0.00000e+00
 7.58458e-04
 2.08879e-03
 3.50379e-03
 4.86543e-03
 6.12567e-03
 7.26771e-03
 8.28758e-03
 9.18713e-03
 9.97091e-03
 1.06448e-02
 1.12150e-02
 1.16882e-02
 1.20707e-02
 1.23687e-02
 1.25881e-02
 1.27346e-02
 1.28135e-02
 1.28298e-02
 1.27884e-02
 1.26936e-02
 1.25497e-02
 1.23607e-02
 1.21302e-02
 1.18617e-02
 1.15585e-02
 1.12238e-02
 1.08603e-02
 1.04709e-02
 1.00581e-02
 9.62430e-03
 9.17184e-03
 8.70288e-03
 8.21944e-03
 7.72349e-03
 7.21687e-03
 6.70136e-03
 6.17869e-03
 5.65051e-03
 5.11849e-03
 4.58429e-03
 4.04967e-03
 3.51649e-03
 2.98692e-03
 2.46359e-03
 1.95001e-03
 1.45136e-03
 9.76137e-04
 5.40415e-04
 1.80207e-04
 0.00000e+00
)


51
(
 0.00000e+00
 0.00000e+00
 0.00000e+00
 0.00000e+00
 0.00000e+00
 0.00000e+00
 0.00000e+00
 0.00000e+00
 0.00000e+00
 0.00000e+00
 0.00000e+00
 0.00000e+00
 0.00000e+00
 0.00000e+00
 0.00000e+00
 0.00000e+00
 0.00000e+00
 0.00000e+00
 0.00000e+00
 0.00000e+00
 0.00000e+00
 0.00000e+00
 0.00000e+00
 0.00000e+00
 0.00000e+00
 0.00000e+00
 0.00000e+00
 0.00000e+00
 0.00000e+00
 0.00000e+00
 0.00000e+00
 0.00000e+00
 0.00000e+00
 0.00000e+00
 0.00000e+00
 0.00000e+00
 0.00000e+00
 0.00000e+00
 0.00000e+00
 0.00000e+00
 0.00000e+00
 0.00000e+00
 0.00000e+00
 0.00000e+00
 0.00000e+00
 0.00000e+00
 0.00000e+00
 0.00000e+00
 0.00000e+00
 0.00000e+00
 0.00000e+00
)


)


5
(

51
(
 0.00000e+00
 4.07381e-13
 1.30730e-01
 1.04651e+00
 1.65966e-02
 1.01067e-03
 1.45346e-08
 1.33908e-07
 9.12003e-07
 4.86626e-06
 1.94937e-05
 6.01311e-05
 1.17666e-04
 1.46226e-04
 1.41268e-05
 1.06849e-05
 8.26357e-06
 6.50886e-06
 5.20091e-06
 4.20316e-06
 3.42758e-06
 2.81560e-06
 2.33084e-06
 1.94523e-06
 1.63122e-06
 1.37871e-06
 1.17232e-06
 1.00317e-06
 8.62914e-07
 7.46635e-07
 6.47226e-07
 5.63598e-07
 4.91036e-07
 4.27323e-07
 3.71481e-07
 3.22223e-07
 2.78105e-07
 2.38474e-07
 2.02807e-07
 1.70689e-07
 1.41788e-07
 1.15840e-07
 9.26257e-08
 7.19410e-08
 5.35506e-08
 3.83968e-08
 2.56019e-08
 1.47065e-08
 7.31846e-09
 2.65587e-09
 0.00000e+00
)


51
(
 0.00000e+00
 1.31651e-02
 2.81739e-02
 3.96253e-02
 4.75891e-02
 5.26110e-02
 5.52556e-02
 5.60261e-02
 5.53520e-02
 5.35930e-02
 5.10469e-02
 4.79581e-02
 4.45248e-02
 4.09063e-02
 3.72282e-02
 3.35886e-02
 3.00614e-02
 2.67011e-02
 2.35455e-02
 2.06191e-02
 1.79353e-02
 1.54987e-02
 1.33071e-02
 1.13529e-02
 9.62467e-03
 8.10826e-03
 6.78776e-03
 5.64628e-03
 4.66662e-03
 3.83176e-03
 3.12527e-03
 2.53154e-03
 2.03605e-03
 1.62542e-03
 1.28753e-03
 1.01150e-03
 7.87661e-04
 6.07527e-04
 4.63713e-04
 3.49849e-04
 2.60490e-04
 1.91024e-04
 1.37574e-04
 9.69100e-05
 6.63656e-05
 4.37570e-05
 2.73145e-05
 1.56215e-05
 7.57083e-06
 2.37087e-06
 0.00000e+00
)


51
(
 0.00000e+00
 4.18949e-03
 9.99176e-03
 1.52718e-02
 1.97647e-02
 2.34723e-02
 2.64569e-02
 2.87947e-02
 3.05611e-02
 3.18268e-02
 3.26558e-02
 3.31061e-02
 3.32293e-02
 3.30717e-02
 3.26745e-02
 3.20745e-02
 3.13042e-02
 3.03928e-02
 2.93662e-02
 2.82472e-02
 2.70562e-02
 2.58114e-02
 2.45284e-02
 2.32215e-02
 2.19029e-02
 2.05833e-02
 1.92722e-02
 1.79776e-02
 1.67065e-02
 1.54649e-02
 1.42577e-02
 1.30890e-02
 1.19622e-02
 1.08801e-02
 9.84476e-03
 8.85762e-03
 7.91977e-03
 7.03181e-03
 6.19395e-03
 5.40609e-03
 4.66783e-03
 3.97854e-03
 3.33741e-03
 2.74353e-03
 2.19594e-03
 1.69384e-03
 1.23678e-03
 8.25391e-04
 4.63229e-04
 1.64045e-04
 0.00000e+00
)


51
(
 0.00000e+00
 1.01399e-03
 2.78262e-03
 4.65676e-03
 6.45549e-03
 8.11693e-03
 9.62018e-03
 1.09610e-02
 1.21424e-02
 1.31711e-02
 1.40551e-02
 1.48030e-02
 1.54237e-02
 1.59257e-02
 1.63172e-02
 1.66061e-02