/*--------------------------------*- C++ -*----------------------------------*\
| =========                 |                                                 |
| \      /  F ield          | OpenFOAM: The Open Source CFD Toolbox           |
|  \    /   O peration      | Version:  7                                     |
|   \  /    A nd            | Web:      http://www.OpenFOAM.com               |
|    \/     M anipulation   |                                                 |
\*---------------------------------------------------------------------------*/
FoamFile 
{   version     2.0;
    format      ascii;
    class       dictionary;
    location    "constant";
    object      LDMtable;
}
// * * * * * * * * * * * * * * * * * * * * * * * * * * * * * * * * * * * * * //

T_table
5
(

51
(

5
(

51
(
 2.94000e+02
 2.94000e+02
 2.94000e+02
 2.94000e+02
 2.94000e+02
 2.94007e+02
 2.94000e+02
 2.94000e+02
 2.94000e+02
 2.94000e+02
 2.94000e+02
 2.94000e+02
 2.94000e+02
 2.94000e+02
 2.94000e+02
 2.94000e+02
 2.94000e+02
 2.94000e+02
 2.94000e+02
 2.94000e+02
 2.94000e+02
 2.94000e+02
 2.94000e+02
 2.94000e+02
 2.94000e+02
 2.94000e+02
 2.94000e+02
 2.94000e+02
 2.94000e+02
 2.94000e+02
 2.94000e+02
 2.94000e+02
 2.94000e+02
 2.94000e+02
 2.94000e+02
 2.94000e+02
 2.94000e+02
 2.94000e+02
 2.94000e+02
 2.94000e+02
 2.94000e+02
 2.94000e+02
 2.94000e+02
 2.94000e+02
 2.94000e+02
 2.94000e+02
 2.94000e+02
 2.94000e+02
 2.94000e+02
 2.94000e+02
 2.94000e+02
)


51
(
 2.94000e+02
 2.94000e+02
 2.93999e+02
 2.93999e+02
 2.93999e+02
 2.93999e+02
 2.93999e+02
 2.93999e+02
 2.93999e+02
 2.93999e+02
 2.93999e+02
 2.93999e+02
 2.93999e+02
 2.93999e+02
 2.94000e+02
 2.94000e+02
 2.94000e+02
 2.94000e+02
 2.94000e+02
 2.94000e+02
 2.94000e+02
 2.94000e+02
 2.94000e+02
 2.94000e+02
 2.94000e+02
 2.94000e+02
 2.94000e+02
 2.94000e+02
 2.94000e+02
 2.94000e+02
 2.94000e+02
 2.94000e+02
 2.94000e+02
 2.94000e+02
 2.94000e+02
 2.94000e+02
 2.94000e+02
 2.94000e+02
 2.94000e+02
 2.94000e+02
 2.94000e+02
 2.94000e+02
 2.94000e+02
 2.94000e+02
 2.94000e+02
 2.94000e+02
 2.94000e+02
 2.94000e+02
 2.94000e+02
 2.94000e+02
 2.94000e+02
)


51
(
 2.94000e+02
 2.94000e+02
 2.94000e+02
 2.94000e+02
 2.94000e+02
 2.94000e+02
 2.93999e+02
 2.93999e+02
 2.93999e+02
 2.93999e+02
 2.93999e+02
 2.93999e+02
 2.93999e+02
 2.93999e+02
 2.93999e+02
 2.93999e+02
 2.93999e+02
 2.93999e+02
 2.93999e+02
 2.93999e+02
 2.94000e+02
 2.94000e+02
 2.94000e+02
 2.94000e+02
 2.94000e+02
 2.94000e+02
 2.94000e+02
 2.94000e+02
 2.94000e+02
 2.94000e+02
 2.94000e+02
 2.94000e+02
 2.94000e+02
 2.94000e+02
 2.94000e+02
 2.94000e+02
 2.94000e+02
 2.94000e+02
 2.94000e+02
 2.94000e+02
 2.94000e+02
 2.94000e+02
 2.94000e+02
 2.94000e+02
 2.94000e+02
 2.94000e+02
 2.94000e+02
 2.94000e+02
 2.94000e+02
 2.94000e+02
 2.94000e+02
)


51
(
 2.94000e+02
 2.94000e+02
 2.94000e+02
 2.94000e+02
 2.94000e+02
 2.94000e+02
 2.94000e+02
 2.94000e+02
 2.94000e+02
 2.94000e+02
 2.94000e+02
 2.94000e+02
 2.94000e+02
 2.94000e+02
 2.94000e+02
 2.94000e+02
 2.94000e+02
 2.94000e+02
 2.94000e+02
 2.94000e+02
 2.94000e+02
 2.94000e+02
 2.94000e+02
 2.94000e+02
 2.94000e+02
 2.94000e+02
 2.94000e+02
 2.94000e+02
 2.94000e+02
 2.94000e+02
 2.94000e+02
 2.94000e+02
 2.94000e+02
 2.94000e+02
 2.94000e+02
 2.94000e+02
 2.94000e+02
 2.94000e+02
 2.94000e+02
 2.94000e+02
 2.94000e+02
 2.94000e+02
 2.94000e+02
 2.94000e+02
 2.94000e+02
 2.94000e+02
 2.94000e+02
 2.94000e+02
 2.94000e+02
 2.94000e+02
 2.94000e+02
)


51
(
 2.94000e+02
 2.94000e+02
 2.94000e+02
 2.94000e+02
 2.94000e+02
 2.94000e+02
 2.94000e+02
 2.94000e+02
 2.94000e+02
 2.94000e+02
 2.94000e+02
 2.94000e+02
 2.94000e+02
 2.94000e+02
 2.94000e+02
 2.94000e+02
 2.94000e+02
 2.94000e+02
 2.94000e+02
 2.94000e+02
 2.94000e+02
 2.94000e+02
 2.94000e+02
 2.94000e+02
 2.94000e+02
 2.94000e+02
 2.94000e+02
 2.94000e+02
 2.94000e+02
 2.94000e+02
 2.94000e+02
 2.94000e+02
 2.94000e+02
 2.94000e+02
 2.94000e+02
 2.94000e+02
 2.94000e+02
 2.94000e+02
 2.94000e+02
 2.94000e+02
 2.94000e+02
 2.94000e+02
 2.94000e+02
 2.94000e+02
 2.94000e+02
 2.94000e+02
 2.94000e+02
 2.94000e+02
 2.94000e+02
 2.94000e+02
 2.94000e+02
)


)


5
(

51
(
 2.94000e+02
 3.09488e+02
 2.94544e+02
 2.94685e+02
 2.94605e+02
 3.01220e+02
 3.32905e+02
 3.30740e+02
 3.28571e+02
 3.26493e+02
 3.24531e+02
 3.22685e+02
 3.20988e+02
 3.19478e+02
 3.20974e+02
 3.19787e+02
 3.18655e+02
 3.17573e+02
 3.16537e+02
 3.15542e+02
 3.14584e+02
 3.13660e+02
 3.12768e+02
 3.11905e+02
 3.11067e+02
 3.10254e+02
 3.09463e+02
 3.08692e+02
 3.07939e+02
 3.07204e+02
 3.06484e+02
 3.05779e+02
 3.05087e+02
 3.04407e+02
 3.03738e+02
 3.03080e+02
 3.02430e+02
 3.01790e+02
 3.01157e+02
 3.00531e+02
 2.99912e+02
 2.99298e+02
 2.98691e+02
 2.98089e+02
 2.97491e+02
 2.96899e+02
 2.96311e+02
 2.95726e+02
 2.95147e+02
 2.94572e+02
 2.94000e+02
)


51
(
 2.94000e+02
 3.00061e+02
 3.02692e+02
 3.04547e+02
 3.06041e+02
 3.07306e+02
 3.08395e+02
 3.09335e+02
 3.10144e+02
 3.10830e+02
 3.11402e+02
 3.11866e+02
 3.12227e+02
 3.12490e+02
 3.12659e+02
 3.12741e+02
 3.12739e+02
 3.12659e+02
 3.12506e+02
 3.12287e+02
 3.12005e+02
 3.11667e+02
 3.11278e+02
 3.10843e+02
 3.10368e+02
 3.09857e+02
 3.09314e+02
 3.08744e+02
 3.08152e+02
 3.07540e+02
 3.06913e+02
 3.06273e+02
 3.05624e+02
 3.04967e+02
 3.04304e+02
 3.03639e+02
 3.02972e+02
 3.02304e+02
 3.01638e+02
 3.00973e+02
 3.00311e+02
 2.99653e+02
 2.98997e+02
 2.98346e+02
 2.97699e+02
 2.97056e+02
 2.96418e+02
 2.95785e+02
 2.95160e+02
 2.94550e+02
 2.94000e+02
)


51
(
 2.94000e+02
 2.98515e+02
 3.00498e+02
 3.01797e+02
 3.02784e+02
 3.03587e+02
 3.04263e+02
 3.04840e+02
 3.05335e+02
 3.05760e+02
 3.06121e+02
 3.06423e+02
 3.06671e+02
 3.06869e+02
 3.07018e+02
 3.07122e+02
 3.07183e+02
 3.07202e+02
 3.07182e+02
 3.07124e+02
 3.07030e+02
 3.06901e+02
 3.06739e+02
 3.06546e+02
 3.06322e+02
 3.06069e+02
 3.05789e+02
 3.05483e+02
 3.05152e+02
 3.04797e+02
 3.04420e+02
 3.04021e+02
 3.03602e+02
 3.03164e+02
 3.02708e+02
 3.02235e+02
 3.01746e+02
 3.01242e+02
 3.00724e+02
 3.00193e+02
 2.99650e+02
 2.99097e+02
 2.98533e+02
 2.97960e+02
 2.97379e+02
 2.96792e+02
 2.96201e+02
 2.95608e+02
 2.95021e+02
 2.94458e+02
 2.94000e+02
)


51
(
 2.94000e+02
 2.96811e+02
 2.98294e+02
 2.99256e+02
 2.99946e+02
 3.00471e+02
 3.00886e+02
 3.01222e+02
 3.01495e+02
 3.01720e+02
 3.01903e+02
 3.02049e+02
 3.02164e+02
 3.02251e+02
 3.02311e+02
 3.02346e+02
 3.02359e+02
 3.02350e+02
 3.02320e+02
 3.02270e+02
 3.02202e+02
 3.02115e+02
 3.02011e+02
 3.01889e+02
 3.01751e+02
 3.01597e+02
 3.01428e+02
 3.01243e+02
 3.01043e+02
 3.00829e+02
 3.00601e+02
 3.00359e+02
 3.00103e+02
 2.99835e+02
 2.99554e+02
 2.99260e+02
 2.98955e+02
 2.98638e+02
 2.98309e+02
 2.97970e+02
 2.97621e+02
 2.97262e+02
 2.96894e+02
 2.96518e+02
 2.96135e+02
 2.95747e+02
 2.95357e+02
 2.94969e+02
 2.94593e+02
 2.94250e+02
 2.94000e+02
)


51
(
 2.94000e+02
 2.94000e+02
 2.94000e+02
 2.94000e+02
 2.94000e+02
 2.94000e+02
 2.94000e+02
 2.94000e+02
 2.94000e+02
 2.94000e+02
 2.94000e+02
 2.94000e+02
 2.94000e+02
 2.94000e+02
 2.94000e+02
 2.94000e+02
 2.94000e+02
 2.94000e+02
 2.94000e+02
 2.94000e+02
 2.94000e+02
 2.94000e+02
 2.94000e+02
 2.94000e+02
 2.94000e+02
 2.94000e+02
 2.94000e+02
 2.94000e+02
 2.94000e+02
 2.94000e+02
 2.94000e+02
 2.94000e+02
 2.94000e+02
 2.94000e+02
 2.94000e+02
 2.94000e+02
 2.94000e+02
 2.94000e+02
 2.94000e+02
 2.94000e+02
 2.94000e+02
 2.94000e+02
 2.94000e+02
 2.94000e+02
 2.94000e+02
 2.94000e+02
 2.94000e+02
 2.94000e+02
 2.94000e+02
 2.94000e+02
 2.94000e+02
)


)


5
(

51
(
 2.94000e+02
 3.24975e+02
 2.99593e+02
 3.01037e+02
 2.99913e+02
 3.12747e+02
 3.71810e+02
 3.67480e+02
 3.63142e+02
 3.58985e+02
 3.55063e+02
 3.51371e+02
 3.47975e+02
 3.44955e+02
 3.47949e+02
 3.45574e+02
 3.43310e+02
 3.41146e+02
 3.39074e+02
 3.37084e+02
 3.35168e+02
 3.33320e+02
 3.31535e+02
 3.29810e+02
 3.28134e+02
 3.26508e+02
 3.24926e+02
 3.23384e+02
 3.21879e+02
 3.20409e+02
 3.18968e+02
 3.17559e+02
 3.16175e+02
 3.14814e+02
 3.13476e+02
 3.12159e+02
 3.10861e+02
 3.09579e+02
 3.08313e+02
 3.07061e+02
 3.05823e+02
 3.04597e+02
 3.03382e+02
 3.02177e+02
 3.00981e+02
 2.99797e+02
 2.98621e+02
 2.97452e+02
 2.96294e+02
 2.95144e+02
 2.94000e+02
)


51
(
 2.94000e+02
 3.06055e+02
 3.11255e+02
 3.14937e+02
 3.17930e+02
 3.20485e+02
 3.22703e+02
 3.24631e+02
 3.26298e+02
 3.27719e+02
 3.28907e+02
 3.29873e+02
 3.30626e+02
 3.31176e+02
 3.31532e+02
 3.31705e+02
 3.31706e+02
 3.31545e+02
 3.31235e+02
 3.30787e+02
 3.30213e+02
 3.29523e+02
 3.28731e+02
 3.27846e+02
 3.26879e+02
 3.25841e+02
 3.24741e+02
 3.23588e+02
 3.22390e+02
 3.21155e+02
 3.19890e+02
 3.18600e+02
 3.17292e+02
 3.15971e+02
 3.14639e+02
 3.13303e+02
 3.11964e+02
 3.10625e+02
 3.09289e+02
 3.07957e+02
 3.06630e+02
 3.05311e+02
 3.03999e+02
 3.02695e+02
 3.01400e+02
 3.00113e+02
 2.98836e+02
 2.97571e+02
 2.96320e+02
 2.95100e+02
 2.94000e+02
)


51
(
 2.94000e+02
 3.03012e+02
 3.06953e+02
 3.09529e+02
 3.11488e+02
 3.13084e+02
 3.14430e+02
 3.15583e+02
 3.16575e+02
 3.17428e+02
 3.18156e+02
 3.18768e+02
 3.19274e+02
 3.19679e+02
 3.19989e+02
 3.20207e+02
 3.20339e+02
 3.20388e+02
 3.20357e+02
 3.20251e+02
 3.20071e+02
 3.19822e+02
 3.19505e+02
 3.19125e+02
 3.18683e+02
 3.18183e+02
 3.17626e+02
 3.17017e+02
 3.16357e+02
 3.15648e+02
 3.14894e+02
 3.14097e+02
 3.13258e+02
 3.12381e+02
 3.11467e+02
 3.10519e+02
 3.09538e+02
 3.08528e+02
 3.07489e+02
 3.06424e+02
 3.05335e+02
 3.04223e+02
 3.03092e+02
 3.01942e+02
 3.00777e+02
 2.99600e+02
 2.98413e+02
 2.97225e+02
 2.96047e+02
 2.94918e+02
 2.94000e+02
)


51
(
 2.94000e+02
 2.99618e+02
 3.02576e+02
 3.04492e+02
 3.05865e+02
 3.06909e+02
 3.07733e+02
 3.08398e+02
 3.08941e+02
 3.09386e+02
 3.09749e+02
 3.10040e+02
 3.10268e+02
 3.10440e+02
 3.10559e+02
 3.10630e+02
 3.10656e+02
 3.10638e+02
 3.10580e+02
 3.10482e+02
 3.10347e+02
 3.10176e+02
 3.09969e+02
 3.09729e+02
 3.09455e+02
 3.09150e+02
 3.08813e+02
 3.08446e+02
 3.08049e+02
 3.07624e+02
 3.07170e+02
 3.06689e+02
 3.06180e+02
 3.05646e+02
 3.05086e+02
 3.04502e+02
 3.03893e+02
 3.03261e+02
 3.02607e+02
 3.01931e+02
 3.01234e+02
 3.00518e+02
 2.99783e+02
 2.99032e+02
 2.98268e+02
 2.97492e+02
 2.96712e+02
 2.95937e+02
 2.95186e+02
 2.94500e+02
 2.94000e+02
)


51
(
 2.94000e+02
 2.94000e+02
 2.94000e+02
 2.94000e+02
 2.94000e+02
 2.94000e+02
 2.94000e+02
 2.94000e+02
 2.94000e+02
 2.94000e+02
 2.94000e+02
 2.94000e+02
 2.94000e+02
 2.94000e+02
 2.94000e+02
 2.94000e+02
 2.94000e+02
 2.94000e+02
 2.94000e+02
 2.94000e+02
 2.94000e+02
 2.94000e+02
 2.94000e+02
 2.94000e+02
 2.94000e+02
 2.94000e+02
 2.94000e+02
 2.94000e+02
 2.94000e+02
 2.94000e+02
 2.94000e+02
 2.94000e+02
 2.94000e+02
 2.94000e+02
 2.94000e+02
 2.94000e+02
 2.94000e+02
 2.94000e+02
 2.94000e+02
 2.94000e+02
 2.94000e+02
 2.94000e+02
 2.94000e+02
 2.94000e+02
 2.94000e+02
 2.94000e+02
 2.94000e+02
 2.94000e+02
 2.94000e+02
 2.94000e+02
 2.94000e+02
)


)


5
(

51
(
 2.94000e+02
 3.40463e+02
 3.09651e+02
 3.13688e+02
 3.10439e+02
 3.27148e+02
 4.10715e+02
 4.04219e+02
 3.97713e+02
 3.91478e+02
 3.85594e+02
 3.80056e+02
 3.74963e+02
 3.70433e+02
 3.74923e+02
 3.71361e+02
 3.67965e+02
 3.64720e+02
 3.61611e+02
 3.58626e+02
 3.55752e+02
 3.52980e+02
 3.50303e+02
 3.47714e+02
 3.45201e+02
 3.42762e+02
 3.40388e+02
 3.38076e+02
 3.35818e+02
 3.33613e+02
 3.31452e+02
 3.29338e+02
 3.27262e+02
 3.25221e+02
 3.23214e+02
 3.21239e+02
 3.19291e+02
 3.17369e+02
 3.15470e+02
 3.13592e+02
 3.11735e+02
 3.09895e+02
 3.08073e+02
 3.06266e+02
 3.04472e+02
 3.02696e+02
 3.00932e+02
 2.99178e+02
 2.97441e+02
 2.95716e+02
 2.94000e+02
)


51
(
 2.94000e+02
 3.12271e+02
 3.20323e+02
 3.26073e+02
 3.30748e+02
 3.34725e+02
 3.38157e+02
 3.41120e+02
 3.43659e+02
 3.45803e+02
 3.47575e+02
 3.48993e+02
 3.50078e+02
 3.50846e+02
 3.51315e+02
 3.51504e+02
 3.51431e+02
 3.51115e+02
 3.50575e+02
 3.49830e+02
 3.48899e+02
 3.47799e+02
 3.46548e+02
 3.45164e+02
 3.43662e+02
 3.42058e+02
 3.40366e+02
 3.38598e+02
 3.36768e+02
 3.34886e+02
 3.32962e+02
 3.31006e+02
 3.29025e+02
 3.27027e+02
 3.25017e+02
 3.23000e+02
 3.20982e+02
 3.18966e+02
 3.16956e+02
 3.14952e+02
 3.12959e+02
 3.10976e+02
 3.09005e+02
 3.07048e+02
 3.05103e+02
 3.03172e+02
 3.01256e+02
 2.99357e+02
 2.97481e+02
 2.95650e+02
 2.94000e+02
)


51
(
 2.94000e+02
 3.07578e+02
 3.13581e+02
 3.17538e+02
 3.20560e+02
 3.23030e+02
 3.25114e+02
 3.26900e+02
 3.28437e+02
 3.29756e+02
 3.30880e+02
 3.31824e+02
 3.32600e+02
 3.33219e+02
 3.33690e+02
 3.34019e+02
 3.34213e+02
 3.34279e+02
 3.34221e+02
 3.34047e+02
 3.33760e+02
 3.33366e+02
 3.32869e+02
 3.32274e+02
 3.31586e+02
 3.30809e+02
 3.29948e+02
 3.29006e+02
 3.27987e+02
 3.26896e+02
 3.25737e+02
 3.24512e+02
 3.23227e+02
 3.21883e+02
 3.20486e+02
 3.19038e+02
 3.17542e+02
 3.16002e+02
 3.14420e+02
 3.12801e+02
 3.11146e+02
 3.09459e+02
 3.07742e+02
 3.06000e+02
 3.04236e+02
 3.02454e+02
 3.00660e+02
 2.98864e+02
 2.97086e+02
 2.95382e+02
 2.94000e+02
)


51
(
 2.94000e+02
 3.02441e+02
 3.06904e+02
 3.09809e+02
 3.11898e+02
 3.13494e+02
 3.14758e+02
 3.15781e+02
 3.16620e+02
 3.17309e+02
 3.17873e+02
 3.18328e+02
 3.18686e+02
 3.18958e+02
 3.19149e+02
 3.19265e+02
 3.19312e+02
 3.19292e+02
 3.19210e+02
 3.19067e+02
 3.18866e+02
 3.18609e+02
 3.18298e+02
 3.17935e+02
 3.17521e+02
 3.17058e+02
 3.16547e+02
 3.15989e+02
 3.15386e+02
 3.14738e+02
 3.14047e+02
 3.13314e+02
 3.12540e+02
 3.11726e+02
 3.10873e+02
 3.09983e+02
 3.09055e+02
 3.08092e+02
 3.07095e+02
 3.06065e+02
 3.05004e+02
 3.03912e+02
 3.02794e+02
 3.01650e+02
 3.00486e+02
 2.99306e+02
 2.98119e+02
 2.96940e+02
 2.95798e+02
 2.94757e+02
 2.94000e+02
)


51
(
 2.94000e+02
 2.94000e+02
 2.94000e+02
 2.94000e+02
 2.94000e+02
 2.94000e+02
 2.94000e+02
 2.94000e+02
 2.94000e+02
 2.94000e+02
 2.94000e+02
 2.94000e+02
 2.94000e+02
 2.94000e+02
 2.94000e+02
 2.94000e+02
 2.94000e+02
 2.94000e+02
 2.94000e+02
 2.94000e+02
 2.94000e+02
 2.94000e+02
 2.94000e+02
 2.94000e+02
 2.94000e+02
 2.94000e+02
 2.94000e+02
 2.94000e+02
 2.94000e+02
 2.94000e+02
 2.94000e+02
 2.94000e+02
 2.94000e+02
 2.94000e+02
 2.94000e+02
 2.94000e+02
 2.94000e+02
 2.94000e+02
 2.94000e+02
 2.94000e+02
 2.94000e+02
 2.94000e+02
 2.94000e+02
 2.94000e+02
 2.94000e+02
 2.94000e+02
 2.94000e+02
 2.94000e+02
 2.94000e+02
 2.94000e+02
 2.94000e+02
)


)


5
(

51
(
 2.94000e+02
 3.55951e+02
 3.24367e+02
 3.32191e+02
 3.25820e+02
 3.44231e+02
 4.49621e+02
 4.40959e+02
 4.32284e+02
 4.23970e+02
 4.16125e+02
 4.08742e+02
 4.01951e+02
 3.95910e+02
 4.01897e+02
 3.97148e+02
 3.92620e+02
 3.88293e+02
 3.84148e+02
 3.80168e+02
 3.76337e+02
 3.72640e+02
 3.69070e+02
 3.65619e+02
 3.62268e+02
 3.59016e+02
 3.55851e+02
 3.52768e+02
 3.49757e+02
 3.46818e+02
 3.43936e+02
 3.41117e+02
 3.38350e+02
 3.35628e+02
 3.32952e+02
 3.30319e+02
 3.27722e+02
 3.25158e+02
 3.22626e+02
 3.20123e+02
 3.17646e+02
 3.15194e+02
 3.12764e+02
 3.10354e+02
 3.07962e+02
 3.05594e+02
 3.03243e+02
 3.00904e+02
 2.98588e+02
 2.96288e+02
 2.94000e+02
)


51
(
 2.94000e+02
 3.18693e+02
 3.29863e+02
 3.37901e+02
 3.44430e+02
 3.49951e+02
 3.54678e+02
 3.58720e+02
 3.62144e+02
 3.64999e+02
 3.67323e+02
 3.69149e+02
 3.70509e+02
 3.71431e+02
 3.71944e+02
 3.72078e+02
 3.71861e+02
 3.71320e+02
 3.70483e+02
 3.69378e+02
 3.68030e+02
 3.66465e+02
 3.64706e+02
 3.62776e+02
 3.60698e+02
 3.58490e+02
 3.56173e+02
 3.53762e+02
 3.51275e+02
 3.48725e+02
 3.46124e+02
 3.43485e+02
 3.40818e+02
 3.38131e+02
 3.35432e+02
 3.32729e+02
 3.30025e+02
 3.27327e+02
 3.24637e+02
 3.21959e+02
 3.19296e+02
 3.16648e+02
 3.14017e+02
 3.11404e+02
 3.08809e+02
 3.06233e+02
 3.03677e+02
 3.01143e+02
 2.98641e+02
 2.96201e+02
 2.94000e+02
)


51
(
 2.94000e+02
 3.12208e+02
 3.20372e+02
 3.25802e+02
 3.29974e+02
 3.33392e+02
 3.36280e+02
 3.38752e+02
 3.40877e+02
 3.42698e+02
 3.44244e+02
 3.45539e+02
 3.46599e+02
 3.47439e+02
 3.48071e+02
 3.48506e+02
 3.48755e+02
 3.48825e+02
 3.48726e+02
 3.48465e+02
 3.48050e+02
 3.47489e+02
 3.46788e+02
 3.45954e+02
 3.44994e+02
 3.43914e+02
 3.42720e+02
 3.41418e+02
 3.40014e+02
 3.38513e+02
 3.36921e+02
 3.35244e+02
 3.33486e+02
 3.31652e+02
 3.29747e+02
 3.27775e+02
 3.25742e+02
 3.23651e+02
 3.21507e+02
 3.19313e+02
 3.17074e+02
 3.14795e+02
 3.12478e+02
 3.10128e+02
 3.07751e+02
 3.05351e+02
 3.02938e+02
 3.00524e+02
 2.98137e+02
 2.95851e+02
 2.94000e+02
)


51
(
 2.94000e+02
 3.05279e+02
 3.11276e+02
 3.15201e+02
 3.18038e+02
 3.20215e+02
 3.21948e+02
 3.23357e+02
 3.24516e+02
 3.25472e+02
 3.26256e+02
 3.26892e+02
 3.27396e+02
 3.27781e+02
 3.28055e+02
 3.28227e+02
 3.28302e+02
 3.28286e+02
 3.28183e+02
 3.27997e+02
 3.27732e+02
 3.27389e+02
 3.26972e+02
 3.26483e+02
 3.25924e+02
 3.25297e+02
 3.24605e+02
 3.23848e+02
 3.23029e+02
 3.22150e+02
 3.21211e+02
 3.20215e+02
 3.19163e+02
 3.18056e+02
 3.16897e+02
 3.15686e+02
 3.14425e+02
 3.13116e+02
 3.11761e+02
 3.10361e+02
 3.08918e+02
 3.07436e+02
 3.05917e+02
 3.04364e+02
 3.02784e+02
 3.01183e+02
 2.99573e+02
 2.97975e+02
 2.96427e+02
 2.95019e+02
 2.94000e+02
)


51
(
 2.94000e+02
 2.94000e+02
 2.94000e+02
 2.94000e+02
 2.94000e+02
 2.94000e+02
 2.94000e+02
 2.94000e+02
 2.94000e+02
 2.94000e+02
 2.94000e+02
 2.94000e+02
 2.94000e+02
 2.94000e+02
 2.94000e+02
 2.94000e+02
 2.94000e+02
 2.94000e+02
 2.94000e+02
 2.94000e+02
 2.94000e+02
 2.94000e+02
 2.94000e+02
 2.94000e+02
 2.94000e+02
 2.94000e+02
 2.94000e+02
 2.94000e+02
 2.94000e+02
 2.94000e+02
 2.94000e+02
 2.94000e+02
 2.94000e+02
 2.94000e+02
 2.94000e+02
 2.94000e+02
 2.94000e+02
 2.94000e+02
 2.94000e+02
 2.94000e+02
 2.94000e+02
 2.94000e+02
 2.94000e+02
 2.94000e+02
 2.94000e+02
 2.94000e+02
 2.94000e+02
 2.94000e+02
 2.94000e+02
 2.94000e+02
 2.94000e+02
)


)


5
(

51
(
 2.94000e+02
 3.69079e+02
 3.43390e+02
 3.56098e+02
 3.45690e+02
 3.63806e+02
 4.88526e+02
 4.77699e+02
 4.66855e+02
 4.56463e+02
 4.46656e+02
 4.37427e+02
 4.28939e+02
 4.21388e+02
 4.28872e+02
 4.22935e+02
 4.17275e+02
 4.11866e+02
 4.06685e+02
 4.01710e+02
 3.96921e+02
 3.92300e+02
 3.87838e+02
 3.83524e+02
 3.79335e+02
 3.75270e+02
 3.71314e+02
 3.67460e+02
 3.63697e+02
 3.60022e+02
 3.56420e+02
 3.52897e+02
 3.49437e+02
 3.46035e+02
 3.42690e+02
 3.39398e+02
 3.36152e+02
 3.32948e+02
 3.29783e+02
 3.26654e+02
 3.23558e+02
 3.20492e+02
 3.17455e+02
 3.14443e+02
 3.11453e+02
 3.08493e+02
 3.05554e+02
 3.02630e+02
 2.99735e+02
 2.96860e+02
 2.94000e+02
)


51
(
 2.94000e+02
 3.24638e+02
 3.39122e+02
 3.49711e+02
 3.58331e+02
 3.65593e+02
 3.71766e+02
 3.76995e+02
 3.81377e+02
 3.84984e+02
 3.87876e+02
 3.90104e+02
 3.91716e+02
 3.92758e+02
 3.93273e+02
 3.93304e+02
 3.92890e+02
 3.92071e+02
 3.90885e+02
 3.89367e+02
 3.87553e+02
 3.85476e+02
 3.83165e+02
 3.80650e+02
 3.77959e+02
 3.75117e+02
 3.72145e+02
 3.69066e+02
 3.65899e+02
 3.62661e+02
 3.59367e+02
 3.56031e+02
 3.52665e+02
 3.49280e+02
 3.45884e+02
 3.42486e+02
 3.39091e+02
 3.35705e+02
 3.32332e+02
 3.28977e+02
 3.25640e+02
 3.22325e+02
 3.19032e+02
 3.15763e+02
 3.12517e+02
 3.09295e+02
 3.06098e+02
 3.02931e+02
 2.99803e+02
 2.96751e+02
 2.94000e+02
)


51
(
 2.94000e+02
 3.16316e+02
 3.26596e+02
 3.33563e+02
 3.38977e+02
 3.43445e+02
 3.47236e+02
 3.50488e+02
 3.53287e+02
 3.55685e+02
 3.57721e+02
 3.59423e+02
 3.60816e+02
 3.61918e+02
 3.62746e+02
 3.63315e+02
 3.63638e+02
 3.63728e+02
 3.63597e+02
 3.63256e+02
 3.62715e+02
 3.61985e+02
 3.61074e+02
 3.59994e+02
 3.58751e+02
 3.57356e+02
 3.55816e+02
 3.54140e+02
 3.52334e+02
 3.50408e+02
 3.48367e+02
 3.46219e+02
 3.43971e+02
 3.41629e+02
 3.39199e+02
 3.36688e+02
 3.34100e+02
 3.31442e+02
 3.28720e+02
 3.25938e+02
 3.23101e+02
 3.20214e+02
 3.17284e+02
 3.14315e+02
 3.11313e+02
 3.08286e+02
 3.05244e+02
 3.02203e+02
 2.99198e+02
 2.96323e+02
 2.94000e+02
)


51
(
 2.94000e+02
 3.07733e+02
 3.15121e+02
 3.20012e+02
 3.23587e+02
 3.26359e+02
 3.28585e+02
 3.30413e+02
 3.31928e+02
 3.33189e+02
 3.34235e+02
 3.35091e+02
 3.35779e+02
 3.36313e+02
 3.36706e+02
 3.36966e+02
 3.37102e+02
 3.37120e+02
 3.37025e+02
 3.36822e+02
 3.36515e+02
 3.36108e+02
 3.35605e+02
 3.35008e+02
 3.34321e+02
 3.33545e+02
 3.32684e+02
 3.31741e+02
 3.30716e+02
 3.29613e+02
 3.28433e+02
 3.27179e+02
 3.25853e+02
 3.24457e+02
 3.22992e+02
 3.21462e+02
 3.19867e+02
 3.18210e+02
 3.16495e+02
 3.14722e+02
 3.12894e+02
 3.11016e+02
 3.09091e+02
 3.07123e+02
 3.05120e+02
 3.03091e+02
 3.01051e+02
 2.99027e+02
 2.97066e+02
 2.95285e+02
 2.94000e+02
)


51
(
 2.94000e+02
 2.94000e+02
 2.94000e+02
 2.94000e+02
 2.94000e+02
 2.94000e+02
 2.94000e+02
 2.94000e+02
 2.94000e+02
 2.94000e+02
 2.94000e+02
 2.94000e+02
 2.94000e+02
 2.94000e+02
 2.94000e+02
 2.94000e+02
 2.94000e+02
 2.94000e+02
 2.94000e+02
 2.94000e+02
 2.94000e+02
 2.94000e+02
 2.94000e+02
 2.94000e+02
 2.94000e+02
 2.94000e+02
 2.94000e+02
 2.94000e+02
 2.94000e+02
 2.94000e+02
 2.94000e+02
 2.94000e+02
 2.94000e+02
 2.94000e+02
 2.94000e+02
 2.94000e+02
 2.94000e+02
 2.94000e+02
 2.94000e+02
 2.94000e+02
 2.94000e+02
 2.94000e+02
 2.94000e+02
 2.94000e+02
 2.94000e+02
 2.94000e+02
 2.94000e+02
 2.94000e+02
 2.94000e+02
 2.94000e+02
 2.94000e+02
)


)


5
(

51
(
 2.94000e+02
 3.80859e+02
 3.66368e+02
 3.84964e+02
 3.69685e+02
 3.85679e+02
 5.27431e+02
 5.14439e+02
 5.01426e+02
 4.88956e+02
 4.77188e+02
 4.66113e+02
 4.55926e+02
 4.46865e+02
 4.55846e+02
 4.48722e+02
 4.41930e+02
 4.35439e+02
 4.29222e+02
 4.23252e+02
 4.17505e+02
 4.11960e+02
 4.06606e+02
 4.01429e+02
 3.96402e+02
 3.91524e+02
 3.86777e+02
 3.82151e+02
 3.77636e+02
 3.73227e+02
 3.68904e+02
 3.64676e+02
 3.60524e+02
 3.56442e+02
 3.52428e+02
 3.48478e+02
 3.44582e+02
 3.40737e+02
 3.36939e+02
 3.33184e+02
 3.29469e+02
 3.25791e+02
 3.22146e+02
 3.18531e+02
 3.14943e+02
 3.11392e+02
 3.07864e+02
 3.04356e+02
 3.00883e+02
 2.97432e+02
 2.94000e+02
)


51
(
 2.94000e+02
 3.30393e+02
 3.48392e+02
 3.61750e+02
 3.72651e+02
 3.81803e+02
 3.89531e+02
 3.96022e+02
 4.01406e+02
 4.05784e+02
 4.09241e+02
 4.11851e+02
 4.13685e+02
 4.14806e+02
 4.15276e+02
 4.15152e+02
 4.14489e+02
 4.13339e+02
 4.11751e+02
 4.09772e+02
 4.07444e+02
 4.04810e+02
 4.01906e+02
 3.98769e+02
 3.95432e+02
 3.91923e+02
 3.88271e+02
 3.84500e+02
 3.80632e+02
 3.76688e+02
 3.72685e+02
 3.68639e+02
 3.64563e+02
 3.60470e+02
 3.56369e+02
 3.52269e+02
 3.48177e+02
 3.44099e+02
 3.40040e+02
 3.36004e+02
 3.31993e+02
 3.28008e+02
 3.24052e+02
 3.20125e+02
 3.16226e+02
 3.12358e+02
 3.08521e+02
 3.04718e+02
 3.00964e+02
 2.97302e+02
 2.94000e+02
)


51
(
 2.94000e+02
 3.20164e+02
 3.32568e+02
 3.41137e+02
 3.47876e+02
 3.53475e+02
 3.58244e+02
 3.62347e+02
 3.65880e+02
 3.68909e+02
 3.71480e+02
 3.73629e+02
 3.75385e+02
 3.76774e+02
 3.77816e+02
 3.78532e+02
 3.78938e+02
 3.79052e+02
 3.78890e+02
 3.78465e+02
 3.77792e+02
 3.76884e+02
 3.75753e+02
 3.74413e+02
 3.72874e+02
 3.71148e+02
 3.69245e+02
 3.67177e+02
 3.64952e+02
 3.62582e+02
 3.60073e+02
 3.57437e+02
 3.54681e+02
 3.51812e+02
 3.48840e+02
 3.45771e+02
 3.42613e+02
 3.39372e+02
 3.36056e+02
 3.32670e+02
 3.29221e+02
 3.25715e+02
 3.22159e+02
 3.18558e+02
 3.14921e+02
 3.11256e+02
 3.07575e+02
 3.03899e+02
 3.00269e+02
 2.96799e+02
 2.94000e+02
)


51
(
 2.94000e+02
 3.09983e+02
 3.18693e+02
 3.24532e+02
 3.28851e+02
 3.32235e+02
 3.34979e+02
 3.37252e+02
 3.39153e+02
 3.40748e+02
 3.42082e+02
 3.43187e+02
 3.44084e+02
 3.44794e+02
 3.45328e+02
 3.45699e+02
 3.45915e+02
 3.45984e+02
 3.45913e+02
 3.45708e+02
 3.45374e+02
 3.44915e+02
 3.44335e+02
 3.43640e+02
 3.42831e+02
 3.41913e+02
 3.40888e+02
 3.39760e+02
 3.38532e+02
 3.37206e+02
 3.35786e+02
 3.34273e+02
 3.32671e+02
 3.30982e+02
 3.29209e+02
 3.27354e+02
 3.25420e+02
 3.23410e+02
 3.21327e+02
 3.19174e+02
 3.16954e+02
 3.14672e+02
 3.12332e+02
 3.09940e+02
 3.07505e+02
 3.05039e+02
 3.02559e+02
 3.00098e+02
 2.97717e+02
 2.95554e+02
 2.94000e+02
)


51
(
 2.94000e+02
 2.94000e+02
 2.94000e+02
 2.94000e+02
 2.94000e+02
 2.94000e+02
 2.94000e+02
 2.94000e+02
 2.94000e+02
 2.94000e+02
 2.94000e+02
 2.94000e+02
 2.94000e+02
 2.94000e+02
 2.94000e+02
 2.94000e+02
 2.94000e+02
 2.94000e+02
 2.94000e+02
 2.94000e+02
 2.94000e+02
 2.94000e+02
 2.94000e+02
 2.94000e+02
 2.94000e+02
 2.94000e+02
 2.94000e+02
 2.94000e+02
 2.94000e+02
 2.94000e+02
 2.94000e+02
 2.94000e+02
 2.94000e+02
 2.94000e+02
 2.94000e+02
 2.94000e+02
 2.94000e+02
 2.94000e+02
 2.94000e+02
 2.94000e+02
 2.94000e+02
 2.94000e+02
 2.94000e+02
 2.94000e+02
 2.94000e+02
 2.94000e+02
 2.94000e+02
 2.94000e+02
 2.94000e+02
 2.94000e+02
 2.94000e+02
)


)


5
(

51
(
 2.94000e+02
 3.93282e+02
 3.92949e+02
 4.18341e+02
 3.97441e+02
 4.09662e+02
 5.66336e+02
 5.51179e+02
 5.35997e+02
 5.21448e+02
 5.07719e+02
 4.94798e+02
 4.82914e+02
 4.72343e+02
 4.82821e+02
 4.74509e+02
 4.66584e+02
 4.59013e+02
 4.51759e+02
 4.44794e+02
 4.38089e+02
 4.31620e+02
 4.25373e+02
 4.19333e+02
 4.13469e+02
 4.07778e+02
 4.02240e+02
 3.96843e+02
 3.91575e+02
 3.86431e+02
 3.81388e+02
 3.76455e+02
 3.71612e+02
 3.66849e+02
 3.62166e+02
 3.57558e+02
 3.53013e+02
 3.48527e+02
 3.44096e+02
 3.39715e+02
 3.35381e+02
 3.31089e+02
 3.26837e+02
 3.22620e+02
 3.18434e+02
 3.14290e+02
 3.10175e+02
 3.06083e+02
 3.02030e+02
 2.98005e+02
 2.94000e+02
)


51
(
 2.94000e+02
 3.36497e+02
 3.58227e+02
 3.74511e+02
 3.87802e+02
 3.98916e+02
 4.08240e+02
 4.16008e+02
 4.22387e+02
 4.27512e+02
 4.31498e+02
 4.34446e+02
 4.36448e+02
 4.37593e+02
 4.37959e+02
 4.37621e+02
 4.36650e+02
 4.35112e+02
 4.33068e+02
 4.30575e+02
 4.27686e+02
 4.24451e+02
 4.20914e+02
 4.17119e+02
 4.13102e+02
 4.08899e+02
 4.04540e+02
 4.00054e+02
 3.95467e+02
 3.90799e+02
 3.86073e+02
 3.81304e+02
 3.76508e+02
 3.71697e+02
 3.66884e+02
 3.62076e+02
 3.57282e+02
 3.52509e+02
 3.47760e+02
 3.43040e+02
 3.38351e+02
 3.33696e+02
 3.29075e+02
 3.24489e+02
 3.19938e+02
 3.15422e+02
 3.10944e+02
 3.06507e+02
 3.02125e+02
 2.97852e+02
 2.94000e+02
)


51
(
 2.94000e+02
 3.24224e+02
 3.38866e+02
 3.49118e+02
 3.57242e+02
 3.64022e+02
 3.69809e+02
 3.74790e+02
 3.79080e+02
 3.82755e+02
 3.85870e+02
 3.88469e+02
 3.90589e+02
 3.92259e+02
 3.93507e+02
 3.94358e+02
 3.94833e+02
 3.94955e+02
 3.94742e+02
 3.94213e+02
 3.93386e+02
 3.92277e+02
 3.90903e+02
 3.89279e+02
 3.87420e+02
 3.85339e+02
 3.83049e+02
 3.80565e+02
 3.77898e+02
 3.75059e+02
 3.72061e+02
 3.68913e+02
 3.65627e+02
 3.62212e+02
 3.58677e+02
 3.55032e+02
 3.51284e+02
 3.47443e+02
 3.43516e+02
 3.39511e+02
 3.35436e+02
 3.31296e+02
 3.27101e+02
 3.22857e+02
 3.18573e+02
 3.14260e+02
 3.09932e+02
 3.05613e+02
 3.01350e+02
 2.97278e+02
 2.94000e+02
)


51
(
 2.94000e+02
 3.12357e+02
 3.22458e+02
 3.29293e+02
 3.34390e+02
 3.38414e+02
 3.41700e+02
 3.44436e+02
 3.46737e+02
 3.48679e+02
 3.50311e+02
 3.51670e+02
 3.52784e+02
 3.53671e+02
 3.54349e+02
 3.54830e+02
 3.55126e+02
 3.55244e+02
 3.55194e+02
 3.54982e+02
 3.54615e+02
 3.54097e+02
 3.53434e+02
 3.52630e+02
 3.51691e+02
 3.50620e+02
 3.49420e+02
 3.48097e+02
 3.46653e+02
 3.45093e+02
 3.43418e+02
 3.41633e+02
 3.39741e+02
 3.37746e+02
 3.35649e+02
 3.33456e+02
 3.31168e+02
 3.28789e+02
 3.26323e+02
 3.23775e+02
 3.21147e+02
 3.18445e+02
 3.15675e+02
 3.12844e+02
 3.09962e+02
 3.07043e+02
 3.04109e+02
 3.01198e+02
 2.98383e+02
 2.95829e+02
 2.94000e+02
)


51
(
 2.94000e+02
 2.94000e+02
 2.94000e+02
 2.94000e+02
 2.94000e+02
 2.94000e+02
 2.94000e+02
 2.94000e+02
 2.94000e+02
 2.94000e+02
 2.94000e+02
 2.94000e+02
 2.94000e+02
 2.94000e+02
 2.94000e+02
 2.94000e+02
 2.94000e+02
 2.94000e+02
 2.94000e+02
 2.94000e+02
 2.94000e+02
 2.94000e+02
 2.94000e+02
 2.94000e+02
 2.94000e+02
 2.94000e+02
 2.94000e+02
 2.94000e+02
 2.94000e+02
 2.94000e+02
 2.94000e+02
 2.94000e+02
 2.94000e+02
 2.94000e+02
 2.94000e+02
 2.94000e+02
 2.94000e+02
 2.94000e+02
 2.94000e+02
 2.94000e+02
 2.94000e+02
 2.94000e+02
 2.94000e+02
 2.94000e+02
 2.94000e+02
 2.94000e+02
 2.94000e+02
 2.94000e+02
 2.94000e+02
 2.94000e+02
 2.94000e+02
)


)


5
(

51
(
 2.94000e+02
 4.06283e+02
 4.22783e+02
 4.55782e+02
 4.28593e+02
 4.35561e+02
 6.05241e+02
 5.87918e+02
 5.70568e+02
 5.53941e+02
 5.38250e+02
 5.23483e+02
 5.09902e+02
 4.97820e+02
 5.09795e+02
 5.00295e+02
 4.91239e+02
 4.82586e+02
 4.74296e+02
 4.66336e+02
 4.58673e+02
 4.51280e+02
 4.44141e+02
 4.37238e+02
 4.30536e+02
 4.24032e+02
 4.17703e+02
 4.11535e+02
 4.05515e+02
 3.99636e+02
 3.93872e+02
 3.88235e+02
 3.82699e+02
 3.77256e+02
 3.71904e+02
 3.66637e+02
 3.61443e+02
 3.56317e+02
 3.51252e+02
 3.46246e+02
 3.41292e+02
 3.36388e+02
 3.31528e+02
 3.26708e+02
 3.21925e+02
 3.17189e+02
 3.12486e+02
 3.07809e+02
 3.03177e+02
 2.98577e+02
 2.94000e+02
)


51
(
 2.94000e+02
 3.42916e+02
 3.68574e+02
 3.87924e+02
 4.03705e+02
 4.16845e+02
 4.27801e+02
 4.36859e+02
 4.44228e+02
 4.50079e+02
 4.54561e+02
 4.57805e+02
 4.59930e+02
 4.61046e+02
 4.61255e+02
 4.60650e+02
 4.59318e+02
 4.57340e+02
 4.54790e+02
 4.51738e+02
 4.48244e+02
 4.44369e+02
 4.40163e+02
 4.35676e+02
 4.30951e+02
 4.26026e+02
 4.20938e+02
 4.15717e+02
 4.10392e+02
 4.04987e+02
 3.99523e+02
 3.94020e+02
 3.88494e+02
 3.82959e+02
 3.77426e+02
 3.71905e+02
 3.66405e+02
 3.60931e+02
 3.55490e+02
 3.50084e+02
 3.44716e+02
 3.39389e+02
 3.34102e+02
 3.28856e+02
 3.23651e+02
 3.18488e+02
 3.13368e+02
 3.08295e+02
 3.03287e+02
 2.98403e+02
 2.94000e+02
)


51
(
 2.94000e+02
 3.28477e+02
 3.45459e+02
 3.57467e+02
 3.67034e+02
 3.75038e+02
 3.81876e+02
 3.87764e+02
 3.92830e+02
 3.97163e+02
 4.00831e+02
 4.03884e+02
 4.06365e+02
 4.08313e+02
 4.09759e+02
 4.10734e+02
 4.11265e+02
 4.11379e+02
 4.11099e+02
 4.10448e+02
 4.09448e+02
 4.08118e+02
 4.06480e+02
 4.04551e+02
 4.02348e+02
 3.99890e+02
 3.97192e+02
 3.94270e+02
 3.91138e+02
 3.87811e+02
 3.84301e+02
 3.80623e+02
 3.76787e+02
 3.72806e+02
 3.68691e+02
 3.64452e+02
 3.60099e+02
 3.55642e+02
 3.51090e+02
 3.46452e+02
 3.41736e+02
 3.36951e+02
 3.32105e+02
 3.27207e+02
 3.22267e+02
 3.17296e+02
 3.12312e+02
 3.07341e+02
 3.02439e+02
 2.97760e+02
 2.94000e+02
)


51
(
 2.94000e+02
 3.14843e+02
 3.26398e+02
 3.34272e+02
 3.40180e+02
 3.44869e+02
 3.48716e+02
 3.51932e+02
 3.54647e+02
 3.56946e+02
 3.58885e+02
 3.60506e+02
 3.61839e+02
 3.62908e+02
 3.63732e+02
 3.64324e+02
 3.64698e+02