/*--------------------------------*- C++ -*----------------------------------*\
| =========                 |                                                 |
| \      /  F ield          | OpenFOAM: The Open Source CFD Toolbox           |
|  \    /   O peration      | Version:  7                                     |
|   \  /    A nd            | Web:      http://www.OpenFOAM.com               |
|    \/     M anipulation   |                                                 |
\*---------------------------------------------------------------------------*/
FoamFile 
{   version     2.0;
    format      ascii;
    class       dictionary;
    location    "constant";
    object      LDMtable;
}
// * * * * * * * * * * * * * * * * * * * * * * * * * * * * * * * * * * * * * //

Yb2I_table
5
(

51
(
3.34411e-121
 1.38182e-05
 8.66695e-05
 1.18308e-04
 1.63641e-04
 1.88281e-04
 1.26191e-04
 1.21747e-04
 1.16536e-04
 1.11174e-04
 1.05856e-04
 1.00643e-04
 9.55521e-05
 9.05908e-05
 8.57607e-05
 8.10625e-05
 7.64965e-05
 7.20628e-05
 6.77615e-05
 6.35925e-05
 5.95559e-05
 5.56516e-05
 5.18797e-05
 4.82401e-05
 4.47329e-05
 4.13581e-05
 3.81156e-05
 3.50054e-05
 3.20276e-05
 2.91822e-05
 2.64691e-05
 2.38884e-05
 2.14400e-05
 1.91239e-05
 1.69402e-05
 1.48889e-05
 1.29699e-05
 1.11832e-05
 9.52887e-06
 8.00690e-06
 6.61727e-06
 5.35999e-06
 4.23505e-06
 3.24246e-06
 2.38222e-06
 1.65432e-06
 1.05876e-06
 5.95554e-07
 2.64691e-07
 6.61727e-08
3.34411e-121
)


51
(
3.34411e-121
 1.06734e-05
 2.29192e-05
 3.40618e-05
 4.37602e-05
 5.19942e-05
 5.88297e-05
 6.43631e-05
 6.87026e-05
 7.19596e-05
 7.42451e-05
 7.56664e-05
 7.63259e-05
 7.63200e-05
 7.57387e-05
 7.46648e-05
 7.31740e-05
 7.13351e-05
 6.92099e-05
 6.68534e-05
 6.43148e-05
 6.16371e-05
 5.88579e-05
 5.60101e-05
 5.31218e-05
 5.02174e-05
 4.73173e-05
 4.44392e-05
 4.15975e-05
 3.88046e-05
 3.60706e-05
 3.34037e-05
 3.08108e-05
 2.82972e-05
 2.58672e-05
 2.35242e-05
 2.12709e-05
 1.91090e-05
 1.70401e-05
 1.50649e-05
 1.31839e-05
 1.13975e-05
 9.70563e-06
 8.10805e-06
 6.60465e-06
 5.19555e-06
 3.88166e-06
 2.66609e-06
 1.55846e-06
 5.93915e-07
3.34411e-121
)


51
(
3.34411e-121
 4.90918e-06
 1.03827e-05
 1.56144e-05
 2.04470e-05
 2.48425e-05
 2.87976e-05
 3.23219e-05
 3.54308e-05
 3.81421e-05
 4.04748e-05
 4.24485e-05
 4.40827e-05
 4.53969e-05
 4.64101e-05
 4.71411e-05
 4.76079e-05
 4.78283e-05
 4.78193e-05
 4.75975e-05
 4.71788e-05
 4.65785e-05
 4.58112e-05
 4.48910e-05
 4.38315e-05
 4.26456e-05
 4.13453e-05
 3.99426e-05
 3.84484e-05
 3.68733e-05
 3.52274e-05
 3.35200e-05
 3.17602e-05
 2.99563e-05
 2.81165e-05
 2.62481e-05
 2.43582e-05
 2.24536e-05
 2.05405e-05
 1.86249e-05
 1.67125e-05
 1.48089e-05
 1.29194e-05
 1.10495e-05
 9.20537e-06
 7.39398e-06
 5.62501e-06
 3.91412e-06
 2.29332e-06
 8.51171e-07
3.34411e-121
)


51
(
3.34411e-121
 1.96548e-06
 4.02430e-06
 6.04811e-06
 7.98430e-06
 9.81199e-06
 1.15223e-05
 1.31119e-05
 1.45798e-05
 1.59267e-05
 1.71541e-05
 1.82641e-05
 1.92589e-05
 2.01410e-05
 2.09131e-05
 2.15779e-05
 2.21381e-05
 2.25966e-05
 2.29560e-05
 2.32192e-05
 2.33890e-05
 2.34681e-05
 2.34593e-05
 2.33653e-05
 2.31888e-05
 2.29326e-05
 2.25991e-05
 2.21912e-05
 2.17113e-05
 2.11621e-05
 2.05461e-05
 1.98660e-05
 1.91242e-05
 1.83233e-05
 1.74659e-05
 1.65546e-05
 1.55919e-05
 1.45806e-05
 1.35234e-05
 1.24235e-05
 1.12839e-05
 1.01082e-05
 8.90080e-06
 7.66666e-06
 6.41249e-06
 5.14761e-06
 3.88622e-06
 2.65226e-06
 1.49148e-06
 5.07139e-07
3.34411e-121
)


51
(
3.34411e-121
3.34411e-121
3.34411e-121
3.34411e-121
3.34411e-121
3.34411e-121
3.34411e-121
3.34411e-121
3.34411e-121
3.34411e-121
3.34411e-121
3.34411e-121
3.34411e-121
3.34411e-121
3.34411e-121
3.34411e-121
3.34411e-121
3.34411e-121
3.34411e-121
3.34411e-121
3.34411e-121
3.34411e-121
3.34411e-121
3.34411e-121
3.34411e-121
3.34411e-121
3.34411e-121
3.34411e-121
3.34411e-121
3.34411e-121
3.34411e-121
3.34411e-121
3.34411e-121
3.34411e-121
3.34411e-121
3.34411e-121
3.34411e-121
3.34411e-121
3.34411e-121
3.34411e-121
3.34411e-121
3.34411e-121
3.34411e-121
3.34411e-121
3.34411e-121
3.34411e-121
3.34411e-121
3.34411e-121
3.34411e-121
3.34411e-121
3.34411e-121
)


)
;