/*--------------------------------*- C++ -*----------------------------------*\
| =========                 |                                                 |
| \      /  F ield          | OpenFOAM: The Open Source CFD Toolbox           |
|  \    /   O peration      | Version:  7                                     |
|   \  /    A nd            | Web:      http://www.OpenFOAM.com               |
|    \/     M anipulation   |                                                 |
\*---------------------------------------------------------------------------*/
FoamFile 
{   version     2.0;
    format      ascii;
    class       dictionary;
    location    "constant";
    object      LDMtable;
}
// * * * * * * * * * * * * * * * * * * * * * * * * * * * * * * * * * * * * * //

YbWI_table
5
(

51
(

5
(

51
(
 0.00000e+00
 4.31851e-31
 4.81136e-22
 1.02820e-22
 2.10929e-21
 5.90090e-18
 3.78257e-28
 5.05156e-29
 4.10395e-27
 2.09878e-26
 3.20643e-28
 3.32835e-27
 1.16876e-26
 9.60517e-28
 5.93881e-28
 2.07623e-28
 1.97131e-28
 1.41557e-28
 4.95193e-28
 1.18718e-28
 2.97749e-28
 2.07318e-28
 1.76317e-28
 1.63964e-29
 3.53068e-29
 8.52513e-29
 1.49848e-28
 9.53726e-29
 7.83713e-29
 3.54509e-30
 1.05128e-29
 7.08380e-29
 1.48704e-28
 1.95202e-29
 2.42263e-29
 4.43478e-29
 9.05066e-29
 5.26585e-29
 4.62323e-29
 3.35755e-29
 1.60626e-29
 2.04080e-29
 7.22116e-31
 1.20614e-31
 6.79225e-32
 4.04979e-32
 5.75130e-32
 1.83801e-32
 1.50708e-32
 5.11165e-33
 0.00000e+00
)


51
(
 0.00000e+00
 3.14635e-20
 7.20507e-20
 1.06683e-19
 1.33958e-19
 1.54231e-19
 1.68253e-19
 1.76864e-19
 1.80887e-19
 1.81096e-19
 1.78197e-19
 1.72826e-19
 1.65545e-19
 1.56847e-19
 1.47160e-19
 1.36846e-19
 1.26213e-19
 1.15515e-19
 1.04958e-19
 9.47066e-20
 8.48878e-20
 7.55953e-20
 6.68946e-20
 5.88271e-20
 5.14135e-20
 4.46581e-20
 3.85513e-20
 3.30728e-20
 2.81941e-20
 2.38807e-20
 2.00939e-20
 1.67926e-20
 1.39345e-20
 1.14775e-20
 9.38016e-21
 7.60265e-21
 6.10731e-21
 4.85890e-21
 3.82488e-21
 2.97553e-21
 2.28399e-21
 1.72621e-21
 1.28090e-21
 9.29328e-22
 6.55231e-22
 4.44589e-22
 2.85463e-22
 1.67835e-22
 8.35652e-23
 2.68628e-23
 0.00000e+00
)


51
(
 0.00000e+00
 1.02034e-20
 2.54469e-20
 4.00572e-20
 5.30368e-20
 6.41933e-20
 7.35585e-20
 8.12400e-20
 8.73718e-20
 9.20944e-20
 9.55470e-20
 9.78627e-20
 9.91673e-20
 9.95785e-20
 9.92052e-20
 9.81484e-20
 9.65006e-20
 9.43469e-20
 9.17648e-20
 8.88251e-20
 8.55919e-20
 8.21233e-20
 7.84716e-20
 7.46841e-20
 7.08028e-20
 6.68653e-20
 6.29051e-20
 5.89514e-20
 5.50303e-20
 5.11642e-20
 4.73726e-20
 4.36721e-20
 4.00769e-20
 3.65989e-20
 3.32475e-20
 3.00307e-20
 2.69544e-20
 2.40232e-20
 2.12401e-20
 1.86070e-20
 1.61247e-20
 1.37933e-20
 1.16119e-20
 9.57930e-21
 7.69415e-21
 5.95539e-21
 4.36331e-21
 2.92186e-21
 1.64539e-21
 5.84704e-22
 0.00000e+00
)


51
(
 0.00000e+00
 2.42477e-21
 6.87298e-21
 1.17382e-20
 1.65057e-20
 2.09767e-20
 2.50703e-20
 2.87574e-20
 3.20337e-20
 3.49075e-20
 3.73936e-20
 3.95104e-20
 4.12778e-20
 4.27165e-20
 4.38469e-20
 4.46892e-20
 4.52630e-20
 4.55871e-20
 4.56795e-20
 4.55575e-20
 4.52373e-20
 4.47346e-20
 4.40641e-20
 4.32398e-20
 4.22748e-20
 4.11817e-20
 3.99721e-20
 3.86574e-20
 3.72480e-20
 3.57539e-20
 3.41844e-20
 3.25484e-20
 3.08543e-20
 2.91101e-20
 2.73233e-20
 2.55010e-20
 2.36501e-20
 2.17773e-20
 1.98888e-20
 1.79909e-20
 1.60899e-20
 1.41922e-20
 1.23048e-20
 1.04354e-20
 8.59330e-21
 6.79095e-21
 5.04624e-21
 3.38858e-21
 1.87319e-21
 6.23822e-22
 0.00000e+00
)


51
(
 0.00000e+00
 0.00000e+00
 0.00000e+00
 0.00000e+00
 0.00000e+00
 0.00000e+00
 0.00000e+00
 0.00000e+00
 0.00000e+00
 0.00000e+00
 0.00000e+00
 0.00000e+00
 0.00000e+00
 0.00000e+00
 0.00000e+00
 0.00000e+00
 0.00000e+00
 0.00000e+00
 0.00000e+00
 0.00000e+00
 0.00000e+00
 0.00000e+00
 0.00000e+00
 0.00000e+00
 0.00000e+00
 0.00000e+00
 0.00000e+00
 0.00000e+00
 0.00000e+00
 0.00000e+00
 0.00000e+00
 0.00000e+00
 0.00000e+00
 0.00000e+00
 0.00000e+00
 0.00000e+00
 0.00000e+00
 0.00000e+00
 0.00000e+00
 0.00000e+00
 0.00000e+00
 0.00000e+00
 0.00000e+00
 0.00000e+00
 0.00000e+00
 0.00000e+00
 0.00000e+00
 0.00000e+00
 0.00000e+00
 0.00000e+00
 0.00000e+00
)


)


5
(

51
(
 0.00000e+00
 1.94841e-19
 5.45922e-06
 5.10592e-05
 9.52331e-07
 5.97945e-08
 2.04093e-11
 1.84691e-10
 1.23066e-09
 6.41367e-09
 2.50704e-08
 7.54050e-08
 1.43775e-07
 1.73970e-07
 1.63530e-08
 1.20252e-08
 9.03438e-09
 6.90670e-09
 5.35156e-09
 4.18976e-09
 3.30643e-09
 2.62555e-09
 2.09856e-09
 1.68883e-09
 1.36375e-09
 1.10832e-09
 9.04708e-10
 7.41909e-10
 6.10436e-10
 5.04170e-10
 4.16232e-10
 3.44328e-10
 2.84207e-10
 2.33590e-10
 1.91120e-10
 1.55417e-10
 1.25195e-10
 9.96860e-11
 7.82554e-11
 6.03738e-11
 4.55921e-11
 3.35237e-11
 2.38271e-11
 1.61929e-11
 1.03315e-11
 6.17326e-12
 3.29292e-12
 1.41867e-12
 4.70651e-13
 8.53997e-14
 0.00000e+00
)


51
(
 0.00000e+00
 5.84099e-07
 1.30638e-06
 1.89092e-06
 2.32013e-06
 2.60816e-06
 2.77557e-06
 2.84347e-06
 2.83163e-06
 2.75787e-06
 2.63776e-06
 2.48468e-06
 2.30986e-06
 2.12256e-06
 1.93026e-06
 1.73884e-06
 1.55278e-06
 1.37539e-06
 1.20897e-06
 1.05498e-06
 9.14222e-07
 7.86942e-07
 6.72983e-07
 5.71877e-07
 4.82934e-07
 4.05314e-07
 3.38090e-07
 2.80294e-07
 2.30953e-07
 1.89119e-07
 1.53888e-07
 1.24414e-07
 9.99188e-08
 7.96949e-08
 6.31075e-08
 4.95935e-08
 3.86579e-08
 2.98704e-08
 2.28595e-08
 1.73079e-08
 1.29462e-08
 9.54804e-09
 6.92418e-09
 4.91805e-09
 3.40094e-09
 2.26796e-09
 1.43443e-09
 8.32798e-10
 4.10574e-10
 1.31078e-10
 0.00000e+00
)


51
(
 0.00000e+00
 1.81024e-07
 4.46473e-07
 6.96409e-07
 9.14345e-07
 1.09779e-06
 1.24803e-06
 1.36759e-06
 1.45934e-06
 1.52620e-06
 1.57098e-06
 1.59633e-06
 1.60473e-06
 1.59844e-06
 1.57954e-06
 1.54994e-06
 1.51134e-06
 1.46530e-06
 1.41321e-06
 1.35633e-06
 1.29576e-06
 1.23250e-06
 1.16742e-06
 1.10130e-06
 1.03479e-06
 9.68496e-07
 9.02909e-07
 8.38461e-07
 7.75513e-07
 7.14368e-07
 6.55272e-07
 5.98424e-07
 5.43978e-07
 4.92050e-07
 4.42721e-07
 3.96040e-07
 3.52033e-07
 3.10698e-07
 2.72018e-07
 2.35954e-07
 2.02458e-07
 1.71467e-07
 1.42912e-07
 1.16717e-07
 9.28069e-08
 7.11103e-08
 5.15735e-08
 3.41858e-08
 1.90554e-08
 6.70253e-09
 0.00000e+00
)


51
(
 0.00000e+00
 4.24963e-08
 1.19719e-07
 2.03550e-07
 2.85176e-07
 3.61267e-07
 4.30521e-07
 4.92508e-07
 5.47215e-07
 5.94839e-07
 6.35683e-07
 6.70102e-07
 6.98475e-07
 7.21187e-07
 7.38618e-07
 7.51141e-07
 7.59112e-07
 7.62874e-07
 7.62754e-07
 7.59061e-07
 7.52091e-07
 7.42119e-07
 7.29411e-07
 7.14211e-07
 6.96755e-07
 6.77262e-07
 6.55939e-07
 6.32979e-07
 6.08567e-07
 5.82873e-07
 5.56061e-07
 5.28281e-07
 4.99676e-07
 4.70382e-07
 4.40525e-07
 4.10226e-07
 3.79598e-07
 3.48749e-07
 3.17786e-07
 2.86808e-07
 2.55918e-07
 2.25218e-07
 1.94817e-07
 1.64838e-07
 1.35425e-07
 1.06772e-07
 7.91546e-08
 5.30274e-08
 2.92437e-08
 9.71553e-09
 0.00000e+00
)


51
(
 0.00000e+00
 0.00000e+00
 0.00000e+00
 0.00000e+00
 0.00000e+00
 0.00000e+00
 0.00000e+00
 0.00000e+00
 0.00000e+00
 0.00000e+00
 0.00000e+00
 0.00000e+00
 0.00000e+00
 0.00000e+00
 0.00000e+00
 0.00000e+00
 0.00000e+00
 0.00000e+00
 0.00000e+00
 0.00000e+00
 0.00000e+00
 0.00000e+00
 0.00000e+00
 0.00000e+00
 0.00000e+00
 0.00000e+00
 0.00000e+00
 0.00000e+00
 0.00000e+00
 0.00000e+00
 0.00000e+00
 0.00000e+00
 0.00000e+00
 0.00000e+00
 0.00000e+00
 0.00000e+00
 0.00000e+00
 0.00000e+00
 0.00000e+00
 0.00000e+00
 0.00000e+00
 0.00000e+00
 0.00000e+00
 0.00000e+00
 0.00000e+00
 0.00000e+00
 0.00000e+00
 0.00000e+00
 0.00000e+00
 0.00000e+00
 0.00000e+00
)


)


5
(

51
(
 0.00000e+00
 3.89681e-19
 5.57261e-05
 5.21198e-04
 9.72112e-06
 6.13259e-07
 4.08186e-11
 3.69382e-10
 2.46131e-09
 1.28273e-08
 5.01409e-08
 1.50810e-07
 2.87549e-07
 3.47941e-07
 3.27061e-08
 2.40503e-08
 1.80688e-08
 1.38134e-08
 1.07031e-08
 8.37952e-09
 6.61286e-09
 5.25110e-09
 4.19712e-09
 3.37766e-09
 2.72750e-09
 2.21664e-09
 1.80942e-09
 1.48382e-09
 1.22087e-09
 1.00834e-09
 8.32464e-10
 6.88657e-10
 5.68414e-10
 4.67181e-10
 3.82240e-10
 3.10833e-10
 2.50390e-10
 1.99372e-10
 1.56511e-10
 1.20748e-10
 9.11843e-11
 6.70474e-11
 4.76542e-11
 3.23858e-11
 2.06631e-11
 1.23465e-11
 6.58584e-12
 2.83734e-12
 9.41302e-13
 1.70799e-13
 0.00000e+00
)


51
(
 0.00000e+00
 5.89666e-06
 1.31252e-05
 1.89488e-05
 2.32078e-05
 2.60515e-05
 2.76900e-05
 2.83372e-05
 2.81927e-05
 2.74350e-05
 2.62202e-05
 2.46815e-05
 2.29304e-05
 2.10588e-05
 1.91404e-05
 1.72331e-05
 1.53810e-05
 1.36166e-05
 1.19622e-05
 1.04322e-05
 9.03414e-06
 7.77045e-06
 6.63943e-06
 5.63634e-06
 4.75428e-06
 3.98488e-06
 3.31892e-06
 2.74675e-06
 2.25870e-06
 1.84533e-06
 1.49764e-06
 1.20720e-06
 9.66245e-07
 7.67728e-07
 6.05312e-07
 4.73374e-07
 3.66975e-07
 2.81814e-07
 2.14187e-07
 1.60922e-07
 1.19336e-07
 8.71700e-08
 6.25424e-08
 4.38970e-08
 2.99580e-08
 1.96881e-08
 1.22528e-08
 6.98802e-09
 3.37816e-09
 1.05545e-09
 0.00000e+00
)


51
(
 0.00000e+00
 1.83220e-06
 4.49866e-06
 7.00062e-06
 9.17806e-06
 1.10085e-05
 1.25062e-05
 1.36970e-05
 1.46101e-05
 1.52749e-05
 1.57197e-05
 1.59712e-05
 1.60538e-05
 1.59904e-05
 1.58016e-05
 1.55063e-05
 1.51216e-05
 1.46629e-05
 1.41439e-05
 1.35772e-05
 1.29737e-05
 1.23434e-05
 1.16948e-05
 1.10355e-05
 1.03724e-05
 9.71106e-06
 9.05657e-06
 8.41319e-06
 7.78451e-06
 7.17356e-06
 6.58279e-06
 6.01420e-06
 5.46934e-06
 4.94939e-06
 4.45517e-06
 3.98721e-06
 3.54577e-06
 3.13088e-06
 2.74237e-06
 2.37991e-06
 2.04302e-06
 1.73110e-06
 1.44350e-06
 1.17947e-06
 9.38293e-07
 7.19276e-07
 5.21907e-07
 3.46110e-07
 1.93013e-07
 6.79213e-08
 0.00000e+00
)


51
(
 0.00000e+00
 4.31932e-07
 1.21202e-06
 2.05610e-06
 2.87665e-06
 3.64099e-06
 4.33647e-06
 4.95904e-06
 5.50872e-06
 5.98754e-06
 6.39856e-06
 6.74535e-06
 7.03170e-06
 7.26143e-06
 7.43834e-06
 7.56612e-06
 7.64830e-06
 7.68829e-06
 7.68933e-06
 7.65449e-06
 7.58670e-06
 7.48870e-06
 7.36310e-06
 7.21235e-06
 7.03878e-06
 6.84457e-06
 6.63176e-06
 6.40230e-06
 6.15800e-06
 5.90057e-06
 5.63163e-06
 5.35269e-06
 5.06518e-06
 4.77044e-06
 4.46975e-06
 4.16431e-06
 3.85526e-06
 3.54369e-06
 3.23066e-06
 2.91719e-06
 2.60431e-06
 2.29307e-06
 1.98456e-06
 1.68003e-06
 1.38098e-06
 1.08936e-06
 8.08008e-07
 5.41584e-07
 2.98828e-07
 9.93281e-08
 0.00000e+00
)


51
(
 0.00000e+00
 0.00000e+00
 0.00000e+00
 0.00000e+00
 0.00000e+00
 0.00000e+00
 0.00000e+00
 0.00000e+00
 0.00000e+00
 0.00000e+00
 0.00000e+00
 0.00000e+00
 0.00000e+00
 0.00000e+00
 0.00000e+00
 0.00000e+00
 0.00000e+00
 0.00000e+00
 0.00000e+00
 0.00000e+00
 0.00000e+00
 0.00000e+00
 0.00000e+00
 0.00000e+00
 0.00000e+00
 0.00000e+00
 0.00000e+00
 0.00000e+00
 0.00000e+00
 0.00000e+00
 0.00000e+00
 0.00000e+00
 0.00000e+00
 0.00000e+00
 0.00000e+00
 0.00000e+00
 0.00000e+00
 0.00000e+00
 0.00000e+00
 0.00000e+00
 0.00000e+00
 0.00000e+00
 0.00000e+00
 0.00000e+00
 0.00000e+00
 0.00000e+00
 0.00000e+00
 0.00000e+00
 0.00000e+00
 0.00000e+00
 0.00000e+00
)


)


5
(

51
(
 0.00000e+00
 5.84522e-19
 1.54759e-04
 1.44744e-03
 2.69969e-05
 1.71164e-06
 6.12279e-11
 5.54073e-10
 3.69197e-09
 1.92410e-08
 7.52113e-08
 2.26215e-07
 4.31324e-07
 5.21911e-07
 4.90591e-08
 3.60755e-08
 2.71032e-08
 2.07201e-08
 1.60547e-08
 1.25693e-08
 9.91930e-09
 7.87664e-09
 6.29568e-09
 5.06649e-09
 4.09125e-09
 3.32496e-09
 2.71412e-09
 2.22573e-09
 1.83131e-09
 1.51251e-09
 1.24870e-09
 1.03299e-09
 8.52622e-10
 7.00771e-10
 5.73360e-10
 4.66250e-10
 3.75585e-10
 2.99058e-10
 2.34766e-10
 1.81121e-10
 1.36776e-10
 1.00571e-10
 7.14813e-11
 4.85786e-11
 3.09946e-11
 1.85198e-11
 9.87876e-12
 4.25600e-12
 1.41195e-12
 2.56199e-13
 0.00000e+00
)


51
(
 0.00000e+00
 1.63144e-05
 3.61278e-05
 5.20113e-05
 6.35796e-05
 7.12678e-05
 7.56655e-05
 7.73660e-05
 7.69187e-05
 7.48132e-05
 7.14748e-05
 6.72653e-05
 6.24870e-05
 5.73874e-05
 5.21653e-05
 4.69766e-05
 4.19396e-05
 3.71413e-05
 3.26419e-05
 2.84797e-05
 2.46750e-05
 2.12345e-05
 1.81535e-05
 1.54193e-05
 1.30135e-05
 1.09136e-05
 9.09472e-06
 7.53089e-06
 6.19602e-06
 5.06460e-06
 4.11228e-06
 3.31622e-06
 2.65538e-06
 2.11057e-06
 1.66457e-06
 1.30207e-06
 1.00958e-06
 7.75380e-07
 5.89321e-07
 4.42735e-07
 3.28261e-07
 2.39709e-07
 1.71910e-07
 1.20588e-07
 8.22333e-08
 5.39909e-08
 3.35608e-08
 1.91128e-08
 9.22346e-09
 2.87577e-09
 0.00000e+00
)


51
(
 0.00000e+00
 5.08726e-06
 1.24328e-05
 1.93002e-05
 2.52647e-05
 3.02721e-05
 3.43654e-05
 3.76178e-05
 4.01107e-05
 4.19256e-05
 4.31402e-05
 4.38274e-05
 4.40548e-05
 4.38842e-05
 4.33721e-05
 4.25698e-05
 4.15236e-05
 4.02754e-05
 3.88628e-05
 3.73193e-05
 3.56751e-05
 3.39566e-05
 3.21874e-05
 3.03882e-05
 2.85772e-05
 2.67700e-05
 2.49804e-05
 2.32198e-05
 2.14981e-05
 1.98237e-05
 1.82033e-05
 1.66424e-05
 1.51454e-05
 1.37154e-05
 1.23550e-05
 1.10656e-05
 9.84805e-06
 8.70254e-06
 7.62873e-06
 6.62580e-06
 5.69255e-06
 4.82748e-06
 4.02885e-06
 3.29478e-06
 2.62334e-06
 2.01277e-06
 1.46177e-06
 9.70268e-07
 5.41577e-07
 1.90756e-07
 0.00000e+00
)


51
(
 0.00000e+00
 1.20497e-06
 3.36742e-06
 5.69941e-06
 7.96259e-06
 1.00690e-05
 1.19853e-05
 1.37008e-05
 1.52162e-05
 1.65371e-05
 1.76721e-05
 1.86310e-05
 1.94243e-05
 2.00623e-05
 2.05555e-05
 2.09138e-05
 2.11468e-05
 2.12640e-05
 2.12739e-05
 2.11851e-05
 2.10053e-05
 2.07422e-05
 2.04027e-05
 1.99935e-05
 1.95210e-05
 1.89910e-05
 1.84092e-05
 1.77808e-05
 1.71107e-05
 1.64037e-05
 1.56641e-05
 1.48960e-05
 1.41034e-05
 1.32899e-05
 1.24591e-05
 1.16142e-05
 1.07583e-05
 9.89452e-06
 9.02571e-06
 8.15473e-06
 7.28442e-06
 6.41767e-06
 5.55758e-06
 4.70764e-06
 3.87202e-06
 3.05624e-06
 2.26829e-06
 1.52130e-06
 8.39910e-07
 2.79343e-07
 0.00000e+00
)


51
(
 0.00000e+00
 0.00000e+00
 0.00000e+00
 0.00000e+00
 0.00000e+00
 0.00000e+00
 0.00000e+00
 0.00000e+00
 0.00000e+00
 0.00000e+00
 0.00000e+00
 0.00000e+00
 0.00000e+00
 0.00000e+00
 0.00000e+00
 0.00000e+00
 0.00000e+00
 0.00000e+00
 0.00000e+00
 0.00000e+00
 0.00000e+00
 0.00000e+00
 0.00000e+00
 0.00000e+00
 0.00000e+00
 0.00000e+00
 0.00000e+00
 0.00000e+00
 0.00000e+00
 0.00000e+00
 0.00000e+00
 0.00000e+00
 0.00000e+00
 0.00000e+00
 0.00000e+00
 0.00000e+00
 0.00000e+00
 0.00000e+00
 0.00000e+00
 0.00000e+00
 0.00000e+00
 0.00000e+00
 0.00000e+00
 0.00000e+00
 0.00000e+00
 0.00000e+00
 0.00000e+00
 0.00000e+00
 0.00000e+00
 0.00000e+00
 0.00000e+00
)


)


5
(

51
(
 0.00000e+00
 7.79363e-19
 2.97863e-04
 2.78586e-03
 5.19605e-05
 3.31181e-06
 8.16372e-11
 7.38764e-10
 4.92262e-09
 2.56547e-08
 1.00282e-07
 3.01620e-07
 5.75098e-07
 6.95882e-07
 6.54122e-08
 4.81006e-08
 3.61375e-08
 2.76268e-08
 2.14063e-08
 1.67590e-08
 1.32257e-08
 1.05022e-08
 8.39423e-09
 6.75532e-09
 5.45501e-09
 4.43327e-09
 3.61883e-09
 2.96764e-09
 2.44174e-09
 2.01668e-09
 1.66493e-09
 1.37731e-09
 1.13683e-09
 9.34361e-10
 7.64480e-10
 6.21667e-10
 5.00780e-10
 3.98744e-10
 3.13022e-10
 2.41495e-10
 1.82369e-10
 1.34095e-10
 9.53083e-11
 6.47715e-11
 4.13262e-11
 2.46930e-11
 1.31717e-11
 5.67467e-12
 1.88260e-12
 3.41599e-13
 0.00000e+00
)


51
(
 0.00000e+00
 3.14587e-05
 6.92740e-05
 9.94128e-05
 1.21258e-04
 1.35699e-04
 1.43892e-04
 1.46986e-04
 1.46034e-04
 1.41967e-04
 1.35591e-04
 1.27588e-04
 1.18526e-04
 1.08868e-04
 9.89862e-05
 8.91718e-05
 7.96458e-05
 7.05700e-05
 6.20569e-05
 5.41782e-05
 4.69723e-05
 4.04516e-05
 3.46080e-05
 2.94181e-05
 2.48475e-05
 2.08545e-05
 1.73927e-05
 1.44136e-05
 1.18682e-05
 9.70873e-06
 7.88937e-06
 6.36712e-06
 5.10223e-06
 4.05848e-06
 3.20324e-06
 2.50748e-06
 1.94561e-06
 1.49530e-06
 1.13725e-06
 8.54923e-07
 6.34265e-07
 4.63434e-07
 3.32538e-07
 2.33379e-07
 1.59221e-07
 1.04579e-07
 6.50274e-08
 3.70420e-08
 1.78785e-08
 5.57454e-09
 0.00000e+00
)


51
(
 0.00000e+00
 9.84824e-06
 2.39505e-05
 3.70821e-05
 4.84608e-05
 5.79984e-05
 6.57860e-05
 7.19686e-05
 7.67048e-05
 8.01519e-05
 8.24593e-05
 8.37663e-05
 8.42014e-05
 8.38823e-05
 8.29159e-05
 8.13994e-05
 7.94204e-05
 7.70578e-05
 7.43825e-05
 7.14580e-05
 6.83407e-05
 6.50807e-05
 6.17225e-05
 5.83051e-05
 5.48628e-05
 5.14253e-05
 4.80184e-05
 4.46642e-05
 4.13814e-05
 3.81858e-05
 3.50904e-05
 3.21059e-05
 2.92406e-05
 2.65010e-05
 2.38918e-05
 2.14162e-05
 1.90759e-05
 1.68715e-05
 1.48027e-05
 1.28680e-05
 1.10656e-05
 9.39258e-06
 7.84601e-06
 6.42248e-06
 5.11853e-06
 3.93101e-06
 2.85768e-06
 1.89869e-06
 1.06085e-06
 3.74028e-07
 0.00000e+00
)


51
(
 0.00000e+00
 2.34426e-06
 6.52357e-06
 1.10147e-05
 1.53654e-05
 1.94113e-05
 2.30906e-05
 2.63847e-05
 2.92955e-05
 3.18344e-05
 3.40182e-05
 3.58656e-05
 3.73966e-05
 3.86312e-05
 3.95888e-05
 4.02888e-05
 4.07492e-05
 4.09877e-05
 4.10208e-05
 4.08644e-05
 4.05334e-05
 4.00420e-05
 3.94036e-05
 3.86307e-05
 3.77353e-05
 3.67285e-05
 3.56209e-05
 3.44225e-05
 3.31427e-05
 3.17903e-05
 3.03735e-05
 2.89004e-05
 2.73782e-05
 2.58141e-05
 2.42145e-05
 2.25859e-05
 2.09343e-05
 1.92654e-05
 1.75847e-05
 1.58979e-05
 1.42102e-05
 1.25275e-05
 1.08556e-05
 9.20149e-06
 7.57321e-06
 5.98161e-06
 4.44241e-06
 2.98141e-06
 1.64711e-06
 5.48148e-07
 0.00000e+00
)


51
(
 0.00000e+00
 0.00000e+00
 0.00000e+00
 0.00000e+00
 0.00000e+00
 0.00000e+00
 0.00000e+00
 0.00000e+00
 0.00000e+00
 0.00000e+00
 0.00000e+00
 0.00000e+00
 0.00000e+00
 0.00000e+00
 0.00000e+00
 0.00000e+00
 0.00000e+00
 0.00000e+00
 0.00000e+00
 0.00000e+00
 0.00000e+00
 0.00000e+00
 0.00000e+00
 0.00000e+00
 0.00000e+00
 0.00000e+00
 0.00000e+00
 0.00000e+00
 0.00000e+00
 0.00000e+00
 0.00000e+00
 0.00000e+00
 0.00000e+00
 0.00000e+00
 0.00000e+00
 0.00000e+00
 0.00000e+00
 0.00000e+00
 0.00000e+00
 0.00000e+00
 0.00000e+00
 0.00000e+00
 0.00000e+00
 0.00000e+00
 0.00000e+00
 0.00000e+00
 0.00000e+00
 0.00000e+00
 0.00000e+00
 0.00000e+00
 0.00000e+00
)


)


5
(

51
(
 0.00000e+00
 4.77023e-18
 4.80339e-04
 4.49254e-03
 8.37925e-05
 5.37065e-06
 1.02046e-10
 9.23454e-10
 6.15328e-09
 3.20683e-08
 1.25352e-07
 3.77025e-07
 7.18873e-07
 8.69852e-07
 8.17652e-08
 6.01258e-08
 4.51719e-08
 3.45335e-08
 2.67578e-08
 2.09488e-08
 1.65322e-08
 1.31277e-08
 1.04928e-08
 8.44415e-09
 6.81876e-09
 5.54159e-09
 4.52354e-09
 3.70955e-09
 3.05218e-09
 2.52085e-09
 2.08116e-09
 1.72164e-09
 1.42104e-09
 1.16795e-09
 9.55600e-10
 7.77083e-10
 6.25975e-10
 4.98430e-10
 3.91277e-10
 3.01869e-10
 2.27961e-10
 1.67618e-10
 1.19135e-10
 8.09644e-11
 5.16577e-11
 3.08663e-11
 1.64646e-11
 7.09334e-12
 2.35325e-12
 4.26999e-13
 0.00000e+00
)


51
(
 0.00000e+00
 5.12535e-05
 1.12182e-04
 1.60358e-04
 1.95026e-04
 2.17760e-04
 2.30504e-04
 2.35144e-04
 2.33385e-04
 2.26725e-04
 2.16444e-04
 2.03622e-04
 1.89153e-04
 1.73763e-04
 1.58036e-04
 1.42425e-04
 1.27275e-04
 1.12839e-04
 9.92946e-05
 8.67524e-05
 7.52735e-05
 6.48780e-05
 5.55536e-05
 4.72646e-05
 3.99574e-05
 3.35670e-05
 2.80209e-05
 2.32429e-05
 1.91561e-05
 1.56852e-05
 1.27577e-05
 1.03057e-05
 8.26594e-06
 6.58102e-06
 5.19894e-06
 4.07338e-06
 3.16346e-06
 2.43345e-06
 1.85241e-06
 1.39377e-06
 1.03493e-06
 7.56841e-07
 5.43537e-07
 3.81782e-07
 2.60684e-07
 1.71360e-07
 1.06636e-07
 6.07899e-08
 2.93619e-08
 9.16138e-09
 0.00000e+00
)


51
(
 0.00000e+00
 1.61076e-05
 3.89910e-05
 6.02004e-05
 7.85180e-05
 9.38310e-05
 1.06306e-04
 1.16190e-04
 1.23747e-04
 1.29236e-04
 1.32901e-04
 1.34969e-04
 1.35646e-04
 1.35122e-04
 1.33567e-04
 1.31137e-04
 1.27971e-04
 1.24194e-04
 1.19919e-04
 1.15246e-04
 1.10264e-04
 1.05053e-04
 9.96837e-05
 9.42169e-05
 8.87070e-05
 8.32015e-05
 7.77410e-05
 7.23609e-05
 6.70910e-05
 6.19566e-05
 5.69786e-05
 5.21742e-05
 4.75570e-05
 4.31377e-05
 3.89241e-05
 3.49216e-05
 3.11335e-05
 2.75610e-05
 2.42040e-05
 2.10606e-05
 1.81280e-05
 1.54023e-05
 1.28789e-05
 1.05528e-05
 8.41886e-06
 6.47231e-06
 4.70999e-06
 3.13269e-06
 1.75218e-06
 6.18425e-07
 0.00000e+00
)


51
(
 0.00000e+00
 3.85102e-06
 1.06772e-05
 1.79882e-05
 2.50566e-05
 3.16217e-05
 3.75871e-05
 4.29257e-05
 4.76421e-05
 5.17565e-05
 5.52964e-05
 5.82931e-05
 6.07791e-05
 6.27867e-05
 6.43478e-05
 6.54933e-05
 6.62524e-05
 6.66535e-05
 6.67231e-05
 6.64865e-05
 6.59678e-05
 6.51895e-05
 6.41728e-05
 6.29380e-05
 6.15039e-05
 5.98885e-05
 5.81085e-05
 5.61798e-05
 5.41173e-05
 5.19351e-05
 4.96465e-05
 4.72639e-05
 4.47993e-05
 4.22639e-05
 3.96681e-05
 3.70222e-05
 3.43358e-05
 3.16180e-05
 2.88780e-05
 2.61246e-05
 2.33666e-05
 2.06133e-05
 1.78744e-05
 1.51610e-05
 1.24867e-05
 9.86929e-06
 7.33480e-06
 4.92597e-06
 2.72325e-06
 9.06871e-07
 0.00000e+00
)


51
(
 0.00000e+00
 0.00000e+00
 0.00000e+00
 0.00000e+00
 0.00000e+00
 0.00000e+00
 0.00000e+00
 0.00000e+00
 0.00000e+00
 0.00000e+00
 0.00000e+00
 0.00000e+00
 0.00000e+00
 0.00000e+00
 0.00000e+00
 0.00000e+00
 0.00000e+00
 0.00000e+00
 0.00000e+00
 0.00000e+00
 0.00000e+00
 0.00000e+00
 0.00000e+00
 0.00000e+00
 0.00000e+00
 0.00000e+00
 0.00000e+00
 0.00000e+00
 0.00000e+00
 0.00000e+00
 0.00000e+00
 0.00000e+00
 0.00000e+00
 0.00000e+00
 0.00000e+00
 0.00000e+00
 0.00000e+00
 0.00000e+00
 0.00000e+00
 0.00000e+00
 0.00000e+00
 0.00000e+00
 0.00000e+00
 0.00000e+00
 0.00000e+00
 0.00000e+00
 0.00000e+00
 0.00000e+00
 0.00000e+00
 0.00000e+00
 0.00000e+00
)


)


5
(

51
(
 0.00000e+00
 6.34962e-17
 6.97493e-04
 6.52354e-03
 1.21674e-04
 7.84503e-06
 1.22456e-10
 1.10815e-09
 7.38393e-09
 3.84820e-08
 1.50423e-07
 4.52430e-07
 8.62648e-07
 1.04382e-06
 9.81183e-08
 7.21509e-08
 5.42063e-08
 4.14402e-08
 3.21094e-08
 2.51385e-08
 1.98386e-08
 1.57533e-08
 1.25914e-08
 1.01330e-08
 8.18251e-09
 6.64991e-09
 5.42825e-09
 4.45146e-09
 3.66261e-09
 3.02502e-09
 2.49739e-09
 2.06597e-09
 1.70524e-09
 1.40154e-09
 1.14672e-09
 9.32500e-10
 7.51170e-10
 5.98116e-10
 4.69532e-10
 3.62243e-10
 2.73553e-10
 2.01142e-10
 1.42963e-10
 9.71573e-11
 6.19893e-11
 3.70395e-11
 1.97575e-11
 8.51201e-12
 2.82391e-12
 5.12398e-13
 0.00000e+00
)


51
(
 0.00000e+00
 7.57665e-05
 1.64744e-04
 2.34396e-04
 2.84048e-04
 3.16265e-04
 3.34033e-04
 3.40176e-04
 3.37205e-04
 3.27288e-04
 3.12268e-04
 2.93682e-04
 2.72797e-04
 2.50638e-04
 2.28025e-04
 2.05596e-04
 1.83834e-04
 1.63097e-04
 1.43631e-04
 1.25594e-04
 1.09074e-04
 9.40993e-05
 8.06540e-05
 6.86884e-05
 5.81283e-05
 4.88822e-05
 4.08479e-05
 3.39179e-05
 2.79833e-05
 2.29367e-05
 1.86751e-05
 1.51013e-05
 1.21248e-05
 9.66318e-06
 7.64158e-06
 5.99327e-06
 4.65920e-06
 3.58764e-06
 2.73376e-06
 2.05898e-06
 1.53042e-06
 1.12032e-06
 8.05387e-07
 5.66278e-07
 3.87050e-07
 2.54684e-07
 1.58647e-07
 9.05311e-08
 4.37706e-08
 1.36705e-08
 0.00000e+00
)


51
(
 0.00000e+00
 2.39061e-05
 5.76059e-05
 8.86732e-05
 1.15391e-04
 1.37644e-04
 1.55714e-04
 1.69985e-04
 1.80863e-04
 1.88736e-04
 1.93968e-04
 1.96893e-04
 1.97815e-04
 1.97009e-04
 1.94723e-04
 1.91180e-04
 1.86582e-04
 1.81108e-04
 1.74919e-04
 1.68158e-04
 1.60953e-04
 1.53416e-04
 1.45649e-04
 1.37738e-04
 1.29762e-04
 1.21787e-04
 1.13873e-04
 1.06069e-04
 9.84193e-05
 9.09593e-05
 8.37197e-05
 7.67254e-05
 6.99967e-05
 6.35490e-05
 5.73944e-05
 5.15410e-05
 4.59941e-05
 4.07562e-05
 3.58274e-05
 3.12060e-05
 2.68883e-05
 2.28692e-05
 1.91427e-05
 1.57021e-05
 1.25404e-05
 9.65149e-06
 7.03132e-06
 4.68188e-06
 2.62161e-06
 9.26324e-07
 0.00000e+00
)


51
(
 0.00000e+00
 5.73801e-06
 1.58574e-05
 2.66600e-05
 3.70814e-05
 4.67452e-05
 5.55159e-05
 6.33579e-05
 7.02815e-05
 7.63186e-05
 8.15119e-05
 8.59085e-05
 8.95569e-05
 9.25055e-05
 9.48014e-05
 9.64898e-05
 9.76141e-05
 9.82153e-05
 9.83325e-05
 9.80024e-05
 9.72598e-05
 9.61373e-05
 9.46659e-05
 9.28746e-05
 9.07907e-05
 8.84400e-05
 8.58466e-05
 8.30334e-05
 8.00218e-05
 7.68322e-05
 7.34835e-05
 6.99939e-05
 6.63803e-05
 6.26588e-05
 5.88448e-05
 5.49528e-05
 5.09967e-05
 4.69900e-05
 4.29457e-05
 3.88767e-05
 3.47960e-05
 3.07171e-05
 2.66543e-05
 2.26242e-05
 1.86469e-05
 1.47489e-05
 1.09693e-05
 7.37227e-06
 4.07857e-06
 1.35914e-06
 0.00000e+00
)


51
(
 0.00000e+00
 0.00000e+00
 0.00000e+00
 0.00000e+00
 0.00000e+00
 0.00000e+00
 0.00000e+00
 0.00000e+00
 0.00000e+00
 0.00000e+00
 0.00000e+00
 0.00000e+00
 0.00000e+00
 0.00000e+00
 0.00000e+00
 0.00000e+00
 0.00000e+00
 0.00000e+00
 0.00000e+00
 0.00000e+00
 0.00000e+00
 0.00000e+00
 0.00000e+00
 0.00000e+00
 0.00000e+00
 0.00000e+00
 0.00000e+00
 0.00000e+00
 0.00000e+00
 0.00000e+00
 0.00000e+00
 0.00000e+00
 0.00000e+00
 0.00000e+00
 0.00000e+00
 0.00000e+00
 0.00000e+00
 0.00000e+00
 0.00000e+00
 0.00000e+00
 0.00000e+00
 0.00000e+00
 0.00000e+00
 0.00000e+00
 0.00000e+00
 0.00000e+00
 0.00000e+00
 0.00000e+00
 0.00000e+00
 0.00000e+00
 0.00000e+00
)


)


5
(

51
(
 0.00000e+00
 3.22425e-16
 9.44628e-04
 8.83495e-03
 1.64785e-04
 1.06918e-05
 1.42865e-10
 1.29284e-09
 8.61459e-09
 4.48957e-08
 1.75493e-07
 5.27835e-07
 1.00642e-06
 1.21779e-06
 1.14471e-07
 8.41761e-08
 6.32407e-08
 4.83469e-08
 3.74609e-08
 2.93283e-08
 2.31450e-08
 1.83788e-08
 1.46899e-08
 1.18218e-08
 9.54626e-09
 7.75823e-09
 6.33296e-09
 5.19336e-09
 4.27305e-09
 3.52919e-09
 2.91363e-09
 2.41030e-09
 1.98945e-09
 1.63513e-09
 1.33784e-09
 1.08792e-09
 8.76365e-10
 6.97802e-10
 5.47788e-10
 4.22616e-10
 3.19145e-10
 2.34666e-10
 1.66790e-10
 1.13350e-10
 7.23208e-11
 4.32128e-11
 2.30504e-11
 9.93068e-12
 3.29456e-12
 5.97798e-13
 0.00000e+00
)


51
(
 0.00000e+00
 1.04982e-04
 2.26610e-04
 3.20749e-04
 3.87145e-04
 4.29716e-04
 4.52767e-04
 4.60252e-04
 4.55623e-04
 4.41820e-04
 4.21309e-04
 3.96133e-04
 3.67965e-04
 3.38155e-04
 3.07775e-04
 2.77661e-04
 2.48448e-04
 2.20602e-04
 1.94448e-04
 1.70196e-04
 1.47962e-04
 1.27785e-04
 1.09648e-04
 9.34865e-05
 7.92044e-05
 6.66825e-05
 5.57870e-05
 4.63760e-05
 3.83056e-05
 3.14334e-05
 2.56223e-05
 2.07424e-05
 1.66728e-05
 1.33027e-05
 1.05314e-05
 8.26885e-06
 6.43534e-06
 4.96076e-06
 3.78423e-06
 2.85330e-06
 2.12318e-06
 1.55596e-06
 1.11981e-06
 7.88239e-07
 5.39369e-07
 3.55315e-07
 2.21586e-07
 1.26592e-07
 6.12764e-08
 1.91601e-08
 0.00000e+00
)


51
(
 0.00000e+00
 3.32696e-05
 7.97783e-05
 1.22399e-04
 1.58880e-04
 1.89140e-04
 2.13619e-04
 2.32886e-04
 2.47519e-04
 2.58069e-04
 2.65042e-04
 2.68901e-04
 2.70062e-04
 2.68901e-04
 2.65753e-04
 2.60920e-04
 2.54673e-04
 2.47251e-04
 2.38870e-04
 2.29721e-04
 2.19973e-04
 2.09778e-04
 1.99268e-04
 1.88561e-04
 1.77760e-04
 1.66954e-04
 1.56222e-04
 1.45631e-04
 1.35240e-04
 1.25096e-04
 1.15242e-04
 1.05711e-04
 9.65317e-05
 8.77248e-05
 7.93074e-05
 7.12913e-05
 6.36846e-05
 5.64914e-05
 4.97129e-05
 4.33474e-05
 3.73909e-05
 3.18376e-05
 2.66799e-05
 2.19097e-05
 1.75184e-05
 1.34985e-05
 9.84563e-06
 6.56365e-06
 3.67971e-06
 1.30173e-06
 0.00000e+00
)


51
(
 0.00000e+00
 8.01882e-06
 2.20851e-05
 3.70485e-05
 5.14494e-05
 6.47797e-05
 7.68616e-05
 8.76529e-05
 9.71729e-05
 1.05470e-04
 1.12604e-04
 1.18644e-04
 1.23658e-04
 1.27712e-04
 1.30873e-04
 1.33203e-04
 1.34761e-04
 1.35604e-04
 1.35786e-04
 1.35356e-04
 1.34361e-04
 1.32846e-04
 1.30853e-04
 1.28421e-04
 1.25586e-04
 1.22384e-04
 1.18847e-04
 1.15006e-04
 1.10889e-04
 1.06524e-04
 1.01936e-04
 9.71501e-05
 9.21885e-05
 8.70730e-05
 8.18243e-05
 7.64619e-05
 7.10046e-05
 6.54707e-05
 5.98778e-05
 5.42435e-05
 4.85854e-05
 4.29220e-05
 3.72733e-05
 3.16621e-05
 2.61163e-05
 2.06733e-05
 1.53877e-05
 1.03499e-05
 5.73035e-06
 1.91097e-06
 0.00000e+00
)


51
(
 0.00000e+00
 0.00000e+00
 0.00000e+00
 0.00000e+00
 0.00000e+00
 0.00000e+00
 0.00000e+00
 0.00000e+00
 0.00000e+00
 0.00000e+00
 0.00000e+00
 0.00000e+00
 0.00000e+00
 0.00000e+00
 0.00000e+00
 0.00000e+00
 0.00000e+00
 0.00000e+00
 0.00000e+00
 0.00000e+00
 0.00000e+00
 0.00000e+00
 0.00000e+00
 0.00000e+00
 0.00000e+00
 0.00000e+00
 0.00000e+00
 0.00000e+00
 0.00000e+00
 0.00000e+00
 0.00000e+00
 0.00000e+00
 0.00000e+00
 0.00000e+00
 0.00000e+00
 0.00000e+00
 0.00000e+00
 0.00000e+00
 0.00000e+00
 0.00000e+00
 0.00000e+00
 0.00000e+00
 0.00000e+00
 0.00000e+00
 0.00000e+00
 0.00000e+00
 0.00000e+00
 0.00000e+00
 0.00000e+00
 0.00000e+00
 0.00000e+00
)


)


5
(

51
(
 0.00000e+00
 1.51435e-15
 1.21705e-03
 1.13828e-02
 2.12307e-04
 1.38679e-05
 1.63274e-10
 1.47753e-09
 9.84524e-09
 5.13094e-08
 2.00564e-07
 6.03240e-07
 1.15020e-06
 1.39176e-06
 1.30824e-07
 9.62013e-08
 7.22751e-08
 5.52536e-08
 4.28125e-08
 3.35181e-08
 2.64515e-08
 2.10044e-08
 1.67885e-08
 1.35106e-08
 1.09100e-08
 8.86655e-09
 7.23767e-09
 5.93527e-09
 4.88349e-09
 4.03336e-09
 3.32986e-09
 2.75463e-09
 2.27366e-09
 1.86872e-09
 1.52896e-09
 1.24333e-09
 1.00156e-09
 7.97488e-10
 6.26043e-10
 4.82990e-10
 3.64737e-10
 2.68190e-10
 1.90617e-10
 1.29543e-10
 8.26524e-11
 4.93860e-11
 2.63434e-11
 1.13493e-11
 3.76521e-12
 6.83198e-13
 0.00000e+00
)


51
(
 0.00000e+00
 1.39066e-04
 2.97770e-04
 4.19030e-04
 5.03524e-04
 5.56970e-04
 5.85297e-04
 5.93795e-04
 5.86987e-04
 5.68662e-04
 5.41962e-04
 5.09468e-04
 4.73276e-04
 4.35072e-04
 3.96192e-04
 3.57674e-04
 3.20310e-04
 2.84681e-04
 2.51192e-04
 2.20110e-04
 1.91580e-04
 1.65657e-04
 1.42322e-04
 1.21499e-04
 1.03069e-04
 8.68862e-05
 7.27829e-05
 6.05823e-05
 5.01033e-05
 4.11665e-05
 3.35980e-05
 2.72327e-05
 2.19167e-05
 1.75078e-05
 1.38772e-05
 1.09089e-05
 8.50014e-06
 6.56022e-06
 5.01029e-06
 3.78223e-06
 2.81776e-06
 2.06745e-06
 1.48972e-06
 1.04989e-06
 7.19284e-07
 4.74420e-07
 2.96233e-07
 1.69451e-07
 8.21263e-08
 2.57123e-08
 0.00000e+00
)


51
(
 0.00000e+00
 4.42844e-05
 1.05636e-04
 1.61487e-04
 2.09035e-04
 2.48292e-04
 2.79916e-04
 3.04706e-04
 3.23459e-04
 3.36918e-04
 3.45759e-04
 3.50592e-04
 3.51963e-04
 3.50360e-04
 3.46218e-04
 3.39924e-04
 3.31824e-04
 3.22225e-04
 3.11400e-04
 2.99592e-04
 2.87016e-04
 2.73863e-04
 2.60302e-04
 2.46480e-04
 2.32529e-04
 2.18563e-04
 2.04681e-04
 1.90969e-04
 1.77502e-04
 1.64342e-04
 1.51543e-04
 1.39149e-04
 1.27196e-04
 1.15713e-04
 1.04722e-04
 9.42405e-05
 8.42792e-05
 7.48449e-05
 6.59402e-05
 5.75643e-05
 4.97133e-05
 4.23808e-05
 3.55585e-05
 2.92369e-05
 2.34063e-05
 1.80581e-05
 1.31880e-05
 8.80313e-06
 4.94153e-06
 1.75032e-06
 0.00000e+00
)


51
(
 0.00000e+00
 1.07207e-05
 2.94217e-05
 4.92407e-05
 6.82647e-05
 8.58391e-05
 1.01743e-04
 1.15930e-04
 1.28433e-04
 1.39322e-04
 1.48682e-04
 1.56605e-04
 1.63181e-04
 1.68502e-04
 1.72655e-04
 1.75723e-04
 1.77783e-04