/*--------------------------------*- C++ -*----------------------------------*\
| =========                 |                                                 |
| \      /  F ield          | OpenFOAM: The Open Source CFD Toolbox           |
|  \    /   O peration      | Version:  7                                     |
|   \  /    A nd            | Web:      http://www.OpenFOAM.com               |
|    \/     M anipulation   |                                                 |
\*---------------------------------------------------------------------------*/
FoamFile 
{   version     2.0;
    format      ascii;
    class       dictionary;
    location    "constant";
    object      LDMtable;
}
// * * * * * * * * * * * * * * * * * * * * * * * * * * * * * * * * * * * * * //

Yu2I_table
5
(

51
(
3.34411e-121
 3.72656e-62
 4.83913e-61
 1.86686e-62
 4.37058e-38
 6.12530e-33
 1.27850e-60
 1.72458e-60
 2.26243e-60
 2.92023e-60
 3.61807e-60
 4.29345e-60
 4.56992e-60
 4.74793e-60
 4.83546e-60
 4.83688e-60
 4.83544e-60
 4.80121e-60
 4.76329e-60
 4.63851e-60
 4.45102e-60
 4.27225e-60
 4.09114e-60
 3.86313e-60
 3.59646e-60
 3.33665e-60
 3.07624e-60
 2.83169e-60
 2.60049e-60
 2.37793e-60
 2.17974e-60
 1.99736e-60
 1.81404e-60
 1.63334e-60
 1.46157e-60
 1.29737e-60
 1.13898e-60
 9.88936e-61
 8.47175e-61
 7.13568e-61
 5.90870e-61
 4.78864e-61
 3.78783e-61
 2.90159e-61
 2.13215e-61
 1.48052e-61
 9.47956e-62
 5.33855e-62
 2.37934e-62
 5.99639e-63
3.34411e-121
)


51
(
3.34411e-121
 1.12437e-35
 2.67538e-35
 4.10958e-35
 5.34527e-35
 6.36545e-35
 7.17226e-35
 7.77606e-35
 8.19157e-35
 8.43606e-35
 8.52816e-35
 8.48714e-35
 8.33227e-35
 8.08240e-35
 7.75551e-35
 7.36849e-35
 6.93688e-35
 6.47474e-35
 5.99457e-35
 5.50727e-35
 5.02213e-35
 4.54694e-35
 4.08798e-35
 3.65022e-35
 3.23736e-35
 2.85199e-35
 2.49575e-35
 2.16939e-35
 1.87300e-35
 1.60604e-35
 1.36752e-35
 1.15608e-35
 9.70094e-36
 8.07758e-36
 6.67152e-36
 5.46309e-36
 4.43269e-36
 3.56116e-36
 2.83013e-36
 2.22225e-36
 1.72136e-36
 1.31262e-36
 9.82527e-37
 7.18970e-37
 5.11185e-37
 3.49717e-37
 2.26370e-37
 1.34154e-37
 6.73197e-38
 2.18077e-38
3.34411e-121
)


51
(
3.34411e-121
 3.74498e-36
 9.55394e-36
 1.53783e-35
 2.08127e-35
 2.57406e-35
 3.01297e-35
 3.39797e-35
 3.73049e-35
 4.01266e-35
 4.24700e-35
 4.43619e-35
 4.58305e-35
 4.69042e-35
 4.76111e-35
 4.79794e-35
 4.80365e-35
 4.78094e-35
 4.73241e-35
 4.66058e-35
 4.56788e-35
 4.45666e-35
 4.32913e-35
 4.18742e-35
 4.03356e-35
 3.86945e-35
 3.69689e-35
 3.51756e-35
 3.33306e-35
 3.14484e-35
 2.95428e-35
 2.76264e-35
 2.57107e-35
 2.38063e-35
 2.19229e-35
 2.00691e-35
 1.82527e-35
 1.64808e-35
 1.47594e-35
 1.30939e-35
 1.14892e-35
 9.94914e-36
 8.47744e-36
 7.07725e-36
 5.75156e-36
 4.50357e-36
 3.33743e-36
 2.26014e-36
 1.28693e-36
 4.62347e-37
3.34411e-121
)


51
(
3.34411e-121
 8.97488e-37
 2.58987e-36
 4.50194e-36
 6.44156e-36
 8.32818e-36
 1.01235e-35
 1.18083e-35
 1.33725e-35
 1.48117e-35
 1.61240e-35
 1.73098e-35
 1.83704e-35
 1.93079e-35
 2.01250e-35
 2.08246e-35
 2.14101e-35
 2.18847e-35
 2.22522e-35
 2.25159e-35
 2.26795e-35
 2.27467e-35
 2.27212e-35
 2.26064e-35
 2.24062e-35
 2.21240e-35
 2.17635e-35
 2.13281e-35
 2.08215e-35
 2.02470e-35
 1.96081e-35
 1.89083e-35
 1.81508e-35
 1.73390e-35
 1.64764e-35
 1.55661e-35
 1.46116e-35
 1.36163e-35
 1.25836e-35
 1.15170e-35
 1.04203e-35
 9.29759e-36
 8.15343e-36
 6.99315e-36
 5.82344e-36
 4.65326e-36
 3.49590e-36
 2.37317e-36
 1.32607e-36
 4.46352e-37
3.34411e-121
)


51
(
3.34411e-121
3.34411e-121
3.34411e-121
3.34411e-121
3.34411e-121
3.34411e-121
3.34411e-121
3.34411e-121
3.34411e-121
3.34411e-121
3.34411e-121
3.34411e-121
3.34411e-121
3.34411e-121
3.34411e-121
3.34411e-121
3.34411e-121
3.34411e-121
3.34411e-121
3.34411e-121
3.34411e-121
3.34411e-121
3.34411e-121
3.34411e-121
3.34411e-121
3.34411e-121
3.34411e-121
3.34411e-121
3.34411e-121
3.34411e-121
3.34411e-121
3.34411e-121
3.34411e-121
3.34411e-121
3.34411e-121
3.34411e-121
3.34411e-121
3.34411e-121
3.34411e-121
3.34411e-121
3.34411e-121
3.34411e-121
3.34411e-121
3.34411e-121
3.34411e-121
3.34411e-121
3.34411e-121
3.34411e-121
3.34411e-121
3.34411e-121
3.34411e-121
)


)
;