/*--------------------------------*- C++ -*----------------------------------*\
| =========                 |                                                 |
| \      /  F ield          | OpenFOAM: The Open Source CFD Toolbox           |
|  \    /   O peration      | Version:  7                                     |
|   \  /    A nd            | Web:      http://www.OpenFOAM.com               |
|    \/     M anipulation   |                                                 |
\*---------------------------------------------------------------------------*/
FoamFile 
{   version     2.0;
    format      ascii;
    class       dictionary;
    location    "constant";
    object      LDMtable;
}
// * * * * * * * * * * * * * * * * * * * * * * * * * * * * * * * * * * * * * //

YuWI_table
5
(

51
(

5
(

51
(
 0.00000e+00
 2.24265e-59
 3.59516e-50
 1.29159e-51
 3.44716e-38
 3.36572e-32
 3.80735e-56
 6.01228e-57
 5.71820e-55
 3.40152e-54
 5.92793e-56
 6.87450e-55
 2.55599e-54
 2.19895e-55
 1.41018e-55
 5.07164e-56
 4.95623e-56
 3.65385e-56
 1.31291e-55
 3.20630e-56
 8.13987e-56
 5.74415e-56
 4.95129e-56
 4.63997e-57
 1.00111e-56
 2.42145e-56
 4.25707e-56
 2.71256e-56
 2.23317e-56
 1.01197e-57
 3.01682e-57
 2.04834e-56
 4.32548e-56
 5.70472e-57
 7.11603e-57
 1.30910e-56
 2.68208e-56
 1.56592e-56
 1.37852e-56
 1.00232e-56
 4.79978e-57
 6.09991e-57
 2.15960e-58
 3.60811e-59
 2.03204e-59
 1.21152e-59
 1.72092e-59
 5.50299e-60
 4.51849e-60
 1.53874e-60
 0.00000e+00
)


51
(
 0.00000e+00
 6.25064e-35
 1.47106e-34
 2.23496e-34
 2.87517e-34
 3.38646e-34
 3.77407e-34
 4.04738e-34
 4.21770e-34
 4.29717e-34
 4.29813e-34
 4.23271e-34
 4.11254e-34
 3.94853e-34
 3.75071e-34
 3.52819e-34
 3.28905e-34
 3.04034e-34
 2.78814e-34
 2.53751e-34
 2.29264e-34
 2.05683e-34
 1.83264e-34
 1.62193e-34
 1.42593e-34
 1.24539e-34
 1.08057e-34
 9.31400e-35
 7.97491e-35
 6.78233e-35
 5.72841e-35
 4.80405e-35
 3.99939e-35
 3.30415e-35
 2.70794e-35
 2.20051e-35
 1.77199e-35
 1.41295e-35
 1.11459e-35
 8.68775e-36
 6.68074e-36
 5.05776e-36
 3.75891e-36
 2.73121e-36
 1.92831e-36
 1.31008e-36
 8.42184e-37
 4.95708e-37
 2.47072e-37
 7.95018e-38
 0.00000e+00
)


51
(
 0.00000e+00
 2.10036e-35
 5.28359e-35
 8.38772e-35
 1.11978e-34
 1.36637e-34
 1.57820e-34
 1.75661e-34
 1.90364e-34
 2.02155e-34
 2.11270e-34
 2.17942e-34
 2.22397e-34
 2.24853e-34
 2.25514e-34
 2.24578e-34
 2.22227e-34
 2.18633e-34
 2.13956e-34
 2.08347e-34
 2.01942e-34
 1.94872e-34
 1.87252e-34
 1.79192e-34
 1.70790e-34
 1.62137e-34
 1.53315e-34
 1.44398e-34
 1.35452e-34
 1.26537e-34
 1.17706e-34
 1.09006e-34
 1.00477e-34
 9.21554e-35
 8.40717e-35
 7.62518e-35
 6.87174e-35
 6.14861e-35
 5.45722e-35
 4.79867e-35
 4.17377e-35
 3.58307e-35
 3.02695e-35
 2.50562e-35
 2.01923e-35
 1.56799e-35
 1.15245e-35
 7.74116e-36
 4.37243e-36
 1.55836e-36
 0.00000e+00
)


51
(
 0.00000e+00
 5.04797e-36
 1.43488e-35
 2.45748e-35
 3.46522e-35
 4.41604e-35
 5.29233e-35
 6.08726e-35
 6.79915e-35
 7.42904e-35
 7.97941e-35
 8.45349e-35
 8.85493e-35
 9.18754e-35
 9.45519e-35
 9.66171e-35
 9.81085e-35
 9.90625e-35
 9.95142e-35
 9.94974e-35
 9.90444e-35
 9.81862e-35
 9.69522e-35
 9.53705e-35
 9.34679e-35
 9.12700e-35
 8.88009e-35
 8.60837e-35
 8.31404e-35
 7.99918e-35
 7.66578e-35
 7.31573e-35
 6.95081e-35
 6.57277e-35
 6.18322e-35
 5.78375e-35
 5.37588e-35
 4.96107e-35
 4.54076e-35
 4.11638e-35
 3.68936e-35
 3.26120e-35
 2.83350e-35
 2.40809e-35
 1.98716e-35
 1.57364e-35
 1.17176e-35
 7.88452e-36
 4.36738e-36
 1.45739e-36
 0.00000e+00
)


51
(
 0.00000e+00
 0.00000e+00
 0.00000e+00
 0.00000e+00
 0.00000e+00
 0.00000e+00
 0.00000e+00
 0.00000e+00
 0.00000e+00
 0.00000e+00
 0.00000e+00
 0.00000e+00
 0.00000e+00
 0.00000e+00
 0.00000e+00
 0.00000e+00
 0.00000e+00
 0.00000e+00
 0.00000e+00
 0.00000e+00
 0.00000e+00
 0.00000e+00
 0.00000e+00
 0.00000e+00
 0.00000e+00
 0.00000e+00
 0.00000e+00
 0.00000e+00
 0.00000e+00
 0.00000e+00
 0.00000e+00
 0.00000e+00
 0.00000e+00
 0.00000e+00
 0.00000e+00
 0.00000e+00
 0.00000e+00
 0.00000e+00
 0.00000e+00
 0.00000e+00
 0.00000e+00
 0.00000e+00
 0.00000e+00
 0.00000e+00
 0.00000e+00
 0.00000e+00
 0.00000e+00
 0.00000e+00
 0.00000e+00
 0.00000e+00
 0.00000e+00
)


)


5
(

51
(
 0.00000e+00
 1.01183e-47
 4.07926e-34
 6.41390e-34
 1.55637e-23
 3.41053e-22
 2.05430e-39
 2.19816e-38
 1.71472e-37
 1.03947e-36
 4.63493e-36
 1.55744e-35
 3.14425e-35
 3.98278e-35
 3.88305e-36
 2.93740e-36
 2.27141e-36
 1.78275e-36
 1.41887e-36
 1.13155e-36
 9.03914e-37
 7.27461e-37
 5.89311e-37
 4.77916e-37
 3.86687e-37
 3.14803e-37
 2.57020e-37
 2.11011e-37
 1.73942e-37
 1.43919e-37
 1.19445e-37
 9.95652e-38
 8.26698e-38
 6.82661e-38
 5.61379e-38
 4.58773e-38
 3.71003e-38
 2.96439e-38
 2.33335e-38
 1.80233e-38
 1.36237e-38
 1.00202e-38
 7.12585e-39
 4.84401e-39
 3.09089e-39
 1.84676e-39
 9.85317e-40
 4.24749e-40
 1.41110e-40
 2.57076e-41
 0.00000e+00
)


51
(
 0.00000e+00
 4.38118e-24
 1.01317e-23
 1.51612e-23
 1.92288e-23
 2.23404e-23
 2.45673e-23
 2.60035e-23
 2.67501e-23
 2.69088e-23
 2.65774e-23
 2.58478e-23
 2.48046e-23
 2.35243e-23
 2.20744e-23
 2.05143e-23
 1.88944e-23
 1.72572e-23
 1.56377e-23
 1.40638e-23
 1.25570e-23
 1.11332e-23
 9.80376e-24
 8.57538e-24
 7.45149e-24
 6.43256e-24
 5.51672e-24
 4.70027e-24
 3.97817e-24
 3.34440e-24
 2.79232e-24
 2.31495e-24
 1.90521e-24
 1.55608e-24
 1.26080e-24
 1.01292e-24
 8.06435e-25
 6.35776e-25
 4.95878e-25
 3.82175e-25
 2.90595e-25
 2.17543e-25
 1.59877e-25
 1.14877e-25
 8.02088e-26
 5.38926e-26
 3.42643e-26
 1.99473e-26
 9.83384e-27
 3.12997e-27
 0.00000e+00
)


51
(
 0.00000e+00
 1.43082e-24
 3.56826e-24
 5.62767e-24
 7.47086e-24
 9.06917e-24
 1.04245e-23
 1.15494e-23
 1.24602e-23
 1.31745e-23
 1.37102e-23
 1.40843e-23
 1.43135e-23
 1.44134e-23
 1.43985e-23
 1.42826e-23
 1.40784e-23
 1.37977e-23
 1.34514e-23
 1.30496e-23
 1.26014e-23
 1.21153e-23
 1.15990e-23
 1.10593e-23
 1.05027e-23
 9.93487e-24
 9.36081e-24
 8.78510e-24
 8.21178e-24
 7.64440e-24
 7.08609e-24
 6.53952e-24
 6.00703e-24
 5.49057e-24
 4.99179e-24
 4.51204e-24
 4.05240e-24
 3.61369e-24
 3.19654e-24
 2.80136e-24
 2.42841e-24
 2.07779e-24
 1.74947e-24
 1.44338e-24
 1.15936e-24
 8.97319e-25
 6.57361e-25
 4.40120e-25
 2.47786e-25
 8.80270e-26
 0.00000e+00
)


51
(
 0.00000e+00
 3.41766e-25
 9.66369e-25
 1.64911e-24
 2.31894e-24
 2.94852e-24
 3.52668e-24
 4.04931e-24
 4.51566e-24
 4.92671e-24
 5.28434e-24
 5.59092e-24
 5.84905e-24
 6.06140e-24
 6.23068e-24
 6.35954e-24
 6.45057e-24
 6.50627e-24
 6.52905e-24
 6.52120e-24
 6.48493e-24
 6.42232e-24
 6.33538e-24
 6.22600e-24
 6.09598e-24
 5.94702e-24
 5.78076e-24
 5.59872e-24
 5.40237e-24
 5.19310e-24
 4.97221e-24
 4.74095e-24
 4.50052e-24
 4.25204e-24
 3.99658e-24
 3.73517e-24
 3.46881e-24
 3.19844e-24
 2.92500e-24
 2.64941e-24
 2.37260e-24
 2.09551e-24
 1.81919e-24
 1.54479e-24
 1.27372e-24
 1.00784e-24
 7.49841e-25
 5.04141e-25
 2.79023e-25
 9.30316e-26
 0.00000e+00
)


51
(
 0.00000e+00
 0.00000e+00
 0.00000e+00
 0.00000e+00
 0.00000e+00
 0.00000e+00
 0.00000e+00
 0.00000e+00
 0.00000e+00
 0.00000e+00
 0.00000e+00
 0.00000e+00
 0.00000e+00
 0.00000e+00
 0.00000e+00
 0.00000e+00
 0.00000e+00
 0.00000e+00
 0.00000e+00
 0.00000e+00
 0.00000e+00
 0.00000e+00
 0.00000e+00
 0.00000e+00
 0.00000e+00
 0.00000e+00
 0.00000e+00
 0.00000e+00
 0.00000e+00
 0.00000e+00
 0.00000e+00
 0.00000e+00
 0.00000e+00
 0.00000e+00
 0.00000e+00
 0.00000e+00
 0.00000e+00
 0.00000e+00
 0.00000e+00
 0.00000e+00
 0.00000e+00
 0.00000e+00
 0.00000e+00
 0.00000e+00
 0.00000e+00
 0.00000e+00
 0.00000e+00
 0.00000e+00
 0.00000e+00
 0.00000e+00
 0.00000e+00
)


)


5
(

51
(
 0.00000e+00
 2.02366e-47
 4.16399e-33
 6.54712e-33
 1.58869e-22
 3.49788e-21
 4.10861e-39
 4.39632e-38
 3.42944e-37
 2.07895e-36
 9.26986e-36
 3.11489e-35
 6.28849e-35
 7.96555e-35
 7.76611e-36
 5.87480e-36
 4.54282e-36
 3.56550e-36
 2.83774e-36
 2.26311e-36
 1.80783e-36
 1.45492e-36
 1.17862e-36
 9.55831e-37
 7.73373e-37
 6.29607e-37
 5.14041e-37
 4.22023e-37
 3.47885e-37
 2.87838e-37
 2.38890e-37
 1.99130e-37
 1.65340e-37
 1.36532e-37
 1.12276e-37
 9.17546e-38
 7.42007e-38
 5.92878e-38
 4.66670e-38
 3.60466e-38
 2.72475e-38
 2.00404e-38
 1.42517e-38
 9.68802e-39
 6.18177e-39
 3.69353e-39
 1.97063e-39
 8.49497e-40
 2.82220e-40
 5.14152e-41
 0.00000e+00
)


51
(
 0.00000e+00
 4.47749e-23
 1.03070e-22
 1.53869e-22
 1.94846e-22
 2.26112e-22
 2.48423e-22
 2.62753e-22
 2.70141e-22
 2.71624e-22
 2.68193e-22
 2.60778e-22
 2.50232e-22
 2.37319e-22
 2.22718e-22
 2.07020e-22
 1.90728e-22
 1.74265e-22
 1.57980e-22
 1.42150e-22
 1.26990e-22
 1.12659e-22
 9.92698e-23
 8.68909e-23
 7.55570e-23
 6.52737e-23
 5.60234e-23
 4.77701e-23
 4.04641e-23
 3.40460e-23
 2.84500e-23
 2.36066e-23
 1.94454e-23
 1.58963e-23
 1.28915e-23
 1.03667e-23
 8.26120e-24
 6.51923e-24
 5.08972e-24
 3.92660e-24
 2.98874e-24
 2.23975e-24
 1.64781e-24
 1.18530e-24
 8.28528e-25
 5.57333e-25
 3.54767e-25
 2.06781e-25
 1.02069e-25
 3.25291e-26
 0.00000e+00
)


51
(
 0.00000e+00
 1.46728e-23
 3.64312e-23
 5.73288e-23
 7.60025e-23
 9.21806e-23
 1.05892e-22
 1.17269e-22
 1.26482e-22
 1.33710e-22
 1.39134e-22
 1.42929e-22
 1.45262e-22
 1.46290e-22
 1.46162e-22
 1.45015e-22
 1.42977e-22
 1.40166e-22
 1.36693e-22
 1.32657e-22
 1.28152e-22
 1.23260e-22
 1.18061e-22
 1.12623e-22
 1.07009e-22
 1.01278e-22
 9.54792e-23
 8.96595e-23
 8.38592e-23
 7.81143e-23
 7.24563e-23
 6.69124e-23
 6.15063e-23
 5.62580e-23
 5.11845e-23
 4.62996e-23
 4.16146e-23
 3.71382e-23
 3.28771e-23
 2.88358e-23
 2.50173e-23
 2.14231e-23
 1.80533e-23
 1.49074e-23
 1.19845e-23
 9.28401e-24
 6.80744e-24
 4.56192e-24
 2.57072e-24
 9.14116e-25
 0.00000e+00
)


51
(
 0.00000e+00
 3.52080e-24
 9.91635e-24
 1.68850e-23
 2.37115e-23
 3.01234e-23
 3.60109e-23
 4.13341e-23
 4.60864e-23
 5.02784e-23
 5.39294e-23
 5.70634e-23
 5.97066e-23
 6.18860e-23
 6.36288e-23
 6.49617e-23
 6.59106e-23
 6.65006e-23
 6.67558e-23
 6.66992e-23
 6.63530e-23
 6.57380e-23
 6.48743e-23
 6.37809e-23
 6.24757e-23
 6.09761e-23
 5.92982e-23
 5.74575e-23
 5.54687e-23
 5.33457e-23
 5.11017e-23
 4.87494e-23
 4.63006e-23
 4.37668e-23
 4.11588e-23
 3.84871e-23
 3.57616e-23
 3.29922e-23
 3.01881e-23
 2.73590e-23
 2.45142e-23
 2.16635e-23
 1.88176e-23
 1.59883e-23
 1.31904e-23
 1.04431e-23
 7.77424e-24
 5.22989e-24
 2.89621e-24
 9.66193e-25
 0.00000e+00
)


51
(
 0.00000e+00
 0.00000e+00
 0.00000e+00
 0.00000e+00
 0.00000e+00
 0.00000e+00
 0.00000e+00
 0.00000e+00
 0.00000e+00
 0.00000e+00
 0.00000e+00
 0.00000e+00
 0.00000e+00
 0.00000e+00
 0.00000e+00
 0.00000e+00
 0.00000e+00
 0.00000e+00
 0.00000e+00
 0.00000e+00
 0.00000e+00
 0.00000e+00
 0.00000e+00
 0.00000e+00
 0.00000e+00
 0.00000e+00
 0.00000e+00
 0.00000e+00
 0.00000e+00
 0.00000e+00
 0.00000e+00
 0.00000e+00
 0.00000e+00
 0.00000e+00
 0.00000e+00
 0.00000e+00
 0.00000e+00
 0.00000e+00
 0.00000e+00
 0.00000e+00
 0.00000e+00
 0.00000e+00
 0.00000e+00
 0.00000e+00
 0.00000e+00
 0.00000e+00
 0.00000e+00
 0.00000e+00
 0.00000e+00
 0.00000e+00
 0.00000e+00
)


)


5
(

51
(
 0.00000e+00
 3.03549e-47
 1.15640e-32
 1.81823e-32
 4.41203e-22
 9.76277e-21
 6.16291e-39
 6.59448e-38
 5.14417e-37
 3.11842e-36
 1.39048e-35
 4.67233e-35
 9.43274e-35
 1.19483e-34
 1.16492e-35
 8.81220e-36
 6.81423e-36
 5.34825e-36
 4.25661e-36
 3.39466e-36
 2.71174e-36
 2.18238e-36
 1.76793e-36
 1.43375e-36
 1.16006e-36
 9.44410e-37
 7.71061e-37
 6.33034e-37
 5.21827e-37
 4.31757e-37
 3.58335e-37
 2.98696e-37
 2.48009e-37
 2.04798e-37
 1.68414e-37
 1.37632e-37
 1.11301e-37
 8.89317e-38
 7.00006e-38
 5.40698e-38
 4.08712e-38
 3.00606e-38
 2.13775e-38
 1.45320e-38
 9.27266e-39
 5.54029e-39
 2.95595e-39
 1.27425e-39
 4.23330e-40
 7.71228e-41
 0.00000e+00
)


51
(
 0.00000e+00
 1.25039e-22
 2.86375e-22
 4.26340e-22
 5.38874e-22
 6.24482e-22
 6.85375e-22
 7.24318e-22
 7.44225e-22
 7.47978e-22
 7.38321e-22
 7.17808e-22
 6.88770e-22
 6.53297e-22
 6.13236e-22
 5.70189e-22
 5.25526e-22
 4.80394e-22
 4.35738e-22
 3.92312e-22
 3.50703e-22
 3.11345e-22
 2.74545e-22
 2.40496e-22
 2.09294e-22
 1.80958e-22
 1.55445e-22
 1.32660e-22
 1.12470e-22
 9.47156e-23
 7.92194e-23
 6.57937e-23
 5.42465e-23
 4.43876e-23
 3.60320e-23
 2.90032e-23
 2.31355e-23
 1.82755e-23
 1.42827e-23
 1.10303e-23
 8.40462e-24
 6.30522e-24
 4.64395e-24
 3.34428e-24
 2.34037e-24
 1.57619e-24
 1.00454e-24
 5.86244e-25
 2.89747e-25
 9.24639e-26
 0.00000e+00
)


51
(
 0.00000e+00
 4.11281e-23
 1.01645e-22
 1.59563e-22
 2.11219e-22
 2.55920e-22
 2.93778e-22
 3.25178e-22
 3.50601e-22
 3.70552e-22
 3.85536e-22
 3.96036e-22
 4.02515e-22
 4.05407e-22
 4.05118e-22
 4.02025e-22
 3.96481e-22
 3.88809e-22
 3.79309e-22
 3.68256e-22
 3.55902e-22
 3.42479e-22
 3.28196e-22
 3.13245e-22
 2.97799e-22
 2.82014e-22
 2.66031e-22
 2.49975e-22
 2.33958e-22
 2.18080e-22
 2.02426e-22
 1.87073e-22
 1.72087e-22
 1.57523e-22
 1.43429e-22
 1.29843e-22
 1.16800e-22
 1.04322e-22
 9.24303e-23
 8.11382e-23
 7.04552e-23
 6.03863e-23
 5.09335e-23
 4.20965e-23
 3.38739e-23
 2.62657e-23
 1.92775e-23
 1.29310e-23
 7.29394e-24
 2.59617e-24
 0.00000e+00
)


51
(
 0.00000e+00
 9.91621e-24
 2.78154e-23
 4.72537e-23
 6.62640e-23
 8.41064e-23
 1.00486e-22
 1.15297e-22
 1.28526e-22
 1.40204e-22
 1.50384e-22
 1.59134e-22
 1.66527e-22
 1.72636e-22
 1.77537e-22
 1.81302e-22
 1.84003e-22
 1.85709e-22
 1.86485e-22
 1.86395e-22
 1.85498e-22
 1.83853e-22
 1.81514e-22
 1.78532e-22
 1.74957e-22
 1.70837e-22
 1.66215e-22
 1.61135e-22
 1.55635e-22
 1.49755e-22
 1.43531e-22
 1.36996e-22
 1.30185e-22
 1.23128e-22
 1.15856e-22
 1.08397e-22
 1.00779e-22
 9.30280e-23
 8.51716e-23
 7.72355e-23
 6.92460e-23
 6.12307e-23
 5.32193e-23
 4.52457e-23
 3.73510e-23
 2.95897e-23
 2.20416e-23
 1.48370e-23
 8.22150e-24
 2.74437e-24
 0.00000e+00
)


51
(
 0.00000e+00
 0.00000e+00
 0.00000e+00
 0.00000e+00
 0.00000e+00
 0.00000e+00
 0.00000e+00
 0.00000e+00
 0.00000e+00
 0.00000e+00
 0.00000e+00
 0.00000e+00
 0.00000e+00
 0.00000e+00
 0.00000e+00
 0.00000e+00
 0.00000e+00
 0.00000e+00
 0.00000e+00
 0.00000e+00
 0.00000e+00
 0.00000e+00
 0.00000e+00
 0.00000e+00
 0.00000e+00
 0.00000e+00
 0.00000e+00
 0.00000e+00
 0.00000e+00
 0.00000e+00
 0.00000e+00
 0.00000e+00
 0.00000e+00
 0.00000e+00
 0.00000e+00
 0.00000e+00
 0.00000e+00
 0.00000e+00
 0.00000e+00
 0.00000e+00
 0.00000e+00
 0.00000e+00
 0.00000e+00
 0.00000e+00
 0.00000e+00
 0.00000e+00
 0.00000e+00
 0.00000e+00
 0.00000e+00
 0.00000e+00
 0.00000e+00
)


)


5
(

51
(
 0.00000e+00
 4.04732e-47
 2.22570e-32
 3.49951e-32
 8.49175e-22
 1.88898e-20
 8.21721e-39
 8.79264e-38
 6.85889e-37
 4.15790e-36
 1.85397e-35
 6.22978e-35
 1.25770e-34
 1.59311e-34
 1.55322e-35
 1.17496e-35
 9.08564e-36
 7.13099e-36
 5.67548e-36
 4.52622e-36
 3.61566e-36
 2.90984e-36
 2.35725e-36
 1.91166e-36
 1.54675e-36
 1.25921e-36
 1.02808e-36
 8.44046e-37
 6.95769e-37
 5.75676e-37
 4.77780e-37
 3.98261e-37
 3.30679e-37
 2.73064e-37
 2.24552e-37
 1.83509e-37
 1.48401e-37
 1.18576e-37
 9.33341e-38
 7.20931e-38
 5.44950e-38
 4.00808e-38
 2.85034e-38
 1.93760e-38
 1.23635e-38
 7.38706e-39
 3.94127e-39
 1.69899e-39
 5.64439e-40
 1.02830e-40
 0.00000e+00
)


51
(
 0.00000e+00
 2.43016e-22
 5.53472e-22
 8.21388e-22
 1.03596e-21
 1.19862e-21
 1.31391e-21
 1.38731e-21
 1.42450e-21
 1.43105e-21
 1.41221e-21
 1.37285e-21
 1.31740e-21
 1.24979e-21
 1.17352e-21
 1.09159e-21
 1.00660e-21
 9.20691e-22
 8.35652e-22
 7.52906e-22
 6.73564e-22
 5.98455e-22
 5.28162e-22
 4.63060e-22
 4.03342e-22
 3.49054e-22
 3.00120e-22
 2.56369e-22
 2.17559e-22
 1.83392e-22
 1.53537e-22
 1.27642e-22
 1.05344e-22
 8.62853e-23
 7.01137e-23
 5.64943e-23
 4.51116e-23
 3.56725e-23
 2.79086e-23
 2.15766e-23
 1.64586e-23
 1.23613e-23
 9.11485e-24
 6.57162e-24
 4.60442e-24
 3.10479e-24
 1.98123e-24
 1.15773e-24
 5.72959e-25
 1.83091e-25
 0.00000e+00
)


51
(
 0.00000e+00
 8.02558e-23
 1.97377e-22
 3.09035e-22
 4.08403e-22
 4.94268e-22
 5.66921e-22
 6.27146e-22
 6.75895e-22
 7.14159e-22
 7.42914e-22
 7.63099e-22
 7.75600e-22
 7.81248e-22
 7.80820e-22
 7.75037e-22
 7.64567e-22
 7.50026e-22
 7.31982e-22
 7.10958e-22
 6.87432e-22
 6.61842e-22
 6.34586e-22
 6.06028e-22
 5.76497e-22
 5.46289e-22
 5.15671e-22
 4.84884e-22
 4.54141e-22
 4.23632e-22
 3.93523e-22
 3.63961e-22
 3.35072e-22
 3.06965e-22
 2.79734e-22
 2.53454e-22
 2.28191e-22
 2.03994e-22
 1.80903e-22
 1.58948e-22
 1.38148e-22
 1.18516e-22
 1.00060e-22
 8.27792e-23
 6.66755e-23
 5.17512e-23
 3.80206e-23
 2.55295e-23
 1.44151e-23
 5.13613e-24
 0.00000e+00
)


51
(
 0.00000e+00
 1.94471e-23
 5.43194e-23
 9.20579e-23
 1.28900e-22
 1.63449e-22
 1.95156e-22
 2.23829e-22
 2.49448e-22
 2.72078e-22
 2.91825e-22
 3.08820e-22
 3.23201e-22
 3.35113e-22
 3.44699e-22
 3.52098e-22
 3.57445e-22
 3.60873e-22
 3.62506e-22
 3.62465e-22
 3.60864e-22
 3.57811e-22
 3.53412e-22
 3.47764e-22
 3.40962e-22
 3.33094e-22
 3.24245e-22
 3.14496e-22
 3.03923e-22
 2.92599e-22
 2.80592e-22
 2.67970e-22
 2.54793e-22
 2.41123e-22
 2.27017e-22
 2.12530e-22
 1.97714e-22
 1.82622e-22
 1.67305e-22
 1.51812e-22
 1.36196e-22
 1.20510e-22
 1.04811e-22
 8.91670e-23
 7.36578e-23
 5.83913e-23
 4.35251e-23
 2.93180e-23
 1.62564e-23
 5.42986e-24
 0.00000e+00
)


51
(
 0.00000e+00
 0.00000e+00
 0.00000e+00
 0.00000e+00
 0.00000e+00
 0.00000e+00
 0.00000e+00
 0.00000e+00
 0.00000e+00
 0.00000e+00
 0.00000e+00
 0.00000e+00
 0.00000e+00
 0.00000e+00
 0.00000e+00
 0.00000e+00
 0.00000e+00
 0.00000e+00
 0.00000e+00
 0.00000e+00
 0.00000e+00
 0.00000e+00
 0.00000e+00
 0.00000e+00
 0.00000e+00
 0.00000e+00
 0.00000e+00
 0.00000e+00
 0.00000e+00
 0.00000e+00
 0.00000e+00
 0.00000e+00
 0.00000e+00
 0.00000e+00
 0.00000e+00
 0.00000e+00
 0.00000e+00
 0.00000e+00
 0.00000e+00
 0.00000e+00
 0.00000e+00
 0.00000e+00
 0.00000e+00
 0.00000e+00
 0.00000e+00
 0.00000e+00
 0.00000e+00
 0.00000e+00
 0.00000e+00
 0.00000e+00
 0.00000e+00
)


)


5
(

51
(
 0.00000e+00
 2.47724e-46
 3.58921e-32
 5.64338e-32
 1.36940e-21
 3.06328e-20
 1.02715e-38
 1.09908e-37
 8.57361e-37
 5.19737e-36
 2.31746e-35
 7.78722e-35
 1.57212e-34
 1.99139e-34
 1.94153e-35
 1.46870e-35
 1.13571e-35
 8.91374e-36
 7.09435e-36
 5.65777e-36
 4.51957e-36
 3.63730e-36
 2.94656e-36
 2.38958e-36
 1.93343e-36
 1.57402e-36
 1.28510e-36
 1.05506e-36
 8.69712e-37
 7.19595e-37
 5.97225e-37
 4.97826e-37
 4.13349e-37
 3.41330e-37
 2.80689e-37
 2.29387e-37
 1.85502e-37
 1.48219e-37
 1.16668e-37
 9.01164e-38
 6.81187e-38
 5.01010e-38
 3.56292e-38
 2.42200e-38
 1.54544e-38
 9.23382e-39
 4.92658e-39
 2.12374e-39
 7.05549e-40
 1.28538e-40
 0.00000e+00
)


51
(
 0.00000e+00
 3.98573e-22
 9.02304e-22
 1.33388e-21
 1.67749e-21
 1.93659e-21
 2.11921e-21
 2.23466e-21
 2.29235e-21
 2.30134e-21
 2.27012e-21
 2.20644e-21
 2.11733e-21
 2.00903e-21
 1.88704e-21
 1.75610e-21
 1.62028e-21
 1.48297e-21
 1.34699e-21
 1.21458e-21
 1.08751e-21
 9.67107e-22
 8.54309e-22
 7.49725e-22
 6.53679e-22
 5.66262e-22
 4.87371e-22
 4.16749e-22
 3.54025e-22
 2.98736e-22
 2.50366e-22
 2.08358e-22
 1.72142e-22
 1.41147e-22
 1.14816e-22
 9.26132e-23
 7.40335e-23
 5.86073e-23
 4.59029e-23
 3.55284e-23
 2.71321e-23
 2.04014e-23
 1.50613e-23
 1.08721e-23
 7.62698e-24
 5.14944e-24
 3.29023e-24
 1.92520e-24
 9.54083e-25
 3.05308e-25
 0.00000e+00
)


51
(
 0.00000e+00
 1.32154e-22
 3.23508e-22
 5.05110e-22
 6.66217e-22
 8.05094e-22
 9.22370e-22
 1.01943e-21
 1.09789e-21
 1.15942e-21
 1.20562e-21
 1.23803e-21
 1.25811e-21
 1.26719e-21
 1.26653e-21
 1.25729e-21
 1.24053e-21
 1.21725e-21
 1.18835e-21
 1.15465e-21
 1.11693e-21
 1.07586e-21
 1.03210e-21
 9.86218e-22
 9.38731e-22
 8.90117e-22
 8.40800e-22
 7.91165e-22
 7.41552e-22
 6.92265e-22
 6.43574e-22
 5.95714e-22
 5.48890e-22
 5.03281e-22
 4.59038e-22
 4.16288e-22
 3.75138e-22
 3.35672e-22
 2.97959e-22
 2.62050e-22
 2.27982e-22
 1.95780e-22
 1.65458e-22
 1.37023e-22
 1.10481e-22
 8.58420e-23
 6.31334e-23
 4.24373e-23
 2.39879e-23
 8.55617e-24
 0.00000e+00
)


51
(
 0.00000e+00
 3.21642e-23
 8.95111e-23
 1.51366e-22
 2.11634e-22
 2.68082e-22
 3.19846e-22
 3.66639e-22
 4.08443e-22
 4.45372e-22
 4.77609e-22
 5.05370e-22
 5.28885e-22
 5.48391e-22
 5.64120e-22
 5.76299e-22
 5.85149e-22
 5.90881e-22
 5.93698e-22
 5.93792e-22
 5.91348e-22
 5.86541e-22
 5.79538e-22
 5.70496e-22
 5.59565e-22
 5.46888e-22
 5.32600e-22
 5.16829e-22
 4.99699e-22
 4.81325e-22
 4.61817e-22
 4.41280e-22
 4.19816e-22
 3.97520e-22
 3.74483e-22
 3.50795e-22
 3.26541e-22
 3.01804e-22
 2.76667e-22
 2.51210e-22
 2.25518e-22
 1.99677e-22
 1.73783e-22
 1.47945e-22
 1.22297e-22
 9.70168e-23
 7.23673e-23
 4.87796e-23
 2.70661e-23
 9.04639e-24
 0.00000e+00
)


51
(
 0.00000e+00
 0.00000e+00
 0.00000e+00
 0.00000e+00
 0.00000e+00
 0.00000e+00
 0.00000e+00
 0.00000e+00
 0.00000e+00
 0.00000e+00
 0.00000e+00
 0.00000e+00
 0.00000e+00
 0.00000e+00
 0.00000e+00
 0.00000e+00
 0.00000e+00
 0.00000e+00
 0.00000e+00
 0.00000e+00
 0.00000e+00
 0.00000e+00
 0.00000e+00
 0.00000e+00
 0.00000e+00
 0.00000e+00
 0.00000e+00
 0.00000e+00
 0.00000e+00
 0.00000e+00
 0.00000e+00
 0.00000e+00
 0.00000e+00
 0.00000e+00
 0.00000e+00
 0.00000e+00
 0.00000e+00
 0.00000e+00
 0.00000e+00
 0.00000e+00
 0.00000e+00
 0.00000e+00
 0.00000e+00
 0.00000e+00
 0.00000e+00
 0.00000e+00
 0.00000e+00
 0.00000e+00
 0.00000e+00
 0.00000e+00
 0.00000e+00
)


)


5
(

51
(
 0.00000e+00
 3.29743e-45
 5.21183e-32
 8.19467e-32
 1.98848e-21
 4.47461e-20
 1.23258e-38
 1.31890e-37
 1.02883e-36
 6.23685e-36
 2.78096e-35
 9.34467e-35
 1.88655e-34
 2.38967e-34
 2.32983e-35
 1.76244e-35
 1.36285e-35
 1.06965e-35
 8.51322e-36
 6.78933e-36
 5.42348e-36
 4.36477e-36
 3.53587e-36
 2.86749e-36
 2.32012e-36
 1.88882e-36
 1.54212e-36
 1.26607e-36
 1.04365e-36
 8.63514e-37
 7.16670e-37
 5.97391e-37
 4.96019e-37
 4.09597e-37
 3.36827e-37
 2.75264e-37
 2.22602e-37
 1.77863e-37
 1.40001e-37
 1.08140e-37
 8.17424e-38
 6.01211e-38
 4.27551e-38
 2.90641e-38
 1.85453e-38
 1.10806e-38
 5.91190e-39
 2.54849e-39
 8.46659e-40
 1.54246e-40
 0.00000e+00
)


51
(
 0.00000e+00
 5.92506e-22
 1.33256e-21
 1.96082e-21
 2.45718e-21
 2.82879e-21
 3.08881e-21
 3.25166e-21
 3.33150e-21
 3.34171e-21
 3.29461e-21
 3.20137e-21
 3.07202e-21
 2.91544e-21
 2.73940e-21
 2.55062e-21
 2.35484e-21
 2.15688e-21
 1.96071e-21
 1.76956e-21
 1.58594e-21
 1.41177e-21
 1.24840e-21
 1.09674e-21
 9.57270e-22
 8.30164e-22
 7.15298e-22
 6.12331e-22
 5.20752e-22
 4.39919e-22
 3.69102e-22
 3.07518e-22
 2.54353e-22
 2.08791e-22
 1.70034e-22
 1.37309e-22
 1.09889e-22
 8.70920e-23
 6.82925e-23
 5.29202e-23
 4.04622e-23
 3.04617e-23
 2.25160e-23
 1.62738e-23
 1.14311e-23
 7.72794e-24
 4.94440e-24
 2.89709e-24
 1.43775e-24
 4.60747e-25
 0.00000e+00
)


51
(
 0.00000e+00
 1.97256e-22
 4.80690e-22
 7.48275e-22
 9.84702e-22
 1.18782e-21
 1.35885e-21
 1.50004e-21
 1.61392e-21
 1.70304e-21
 1.76982e-21
 1.81658e-21
 1.84544e-21
 1.85839e-21
 1.85727e-21
 1.84374e-21
 1.81937e-21
 1.78557e-21
 1.74364e-21
 1.69478e-21
 1.64008e-21
 1.58052e-21
 1.51703e-21
 1.45042e-21
 1.38144e-21
 1.31077e-21
 1.23901e-21
 1.16673e-21
 1.09442e-21
 1.02250e-21
 9.51377e-22
 8.81387e-22
 8.12831e-22
 7.45970e-22
 6.81027e-22
 6.18193e-22
 5.57627e-22
 4.99458e-22
 4.43792e-22
 3.90709e-22
 3.40269e-22
 2.92515e-22
 2.47476e-22
 2.05170e-22
 1.65610e-22
 1.28819e-22
 9.48482e-23
 6.38280e-23
 3.61204e-23
 1.28983e-23
 0.00000e+00
)


51
(
 0.00000e+00
 4.81996e-23
 1.33702e-22
 2.25626e-22
 3.14999e-22
 3.98577e-22
 4.75132e-22
 5.44276e-22
 6.06009e-22
 6.60524e-22
 7.08106e-22
 7.49086e-22
 7.83813e-22
 8.12639e-22
 8.35913e-22
 8.53972e-22
 8.67142e-22
 8.75732e-22
 8.80041e-22
 8.80351e-22
 8.76929e-22
 8.70032e-22
 8.59901e-22
 8.46763e-22
 8.30838e-22
 8.12330e-22
 7.91436e-22
 7.68340e-22
 7.43218e-22
 7.16238e-22
 6.87559e-22
 6.57333e-22
 6.25704e-22
 5.92811e-22
 5.58785e-22
 5.23756e-22
 4.87847e-22
 4.51178e-22
 4.13869e-22
 3.76039e-22
 3.37810e-22
 2.99310e-22
 2.60679e-22
 2.22080e-22
 1.83713e-22
 1.45844e-22
 1.08869e-22
 7.34377e-23
 4.07774e-23
 1.36386e-23
 0.00000e+00
)


51
(
 0.00000e+00
 0.00000e+00
 0.00000e+00
 0.00000e+00
 0.00000e+00
 0.00000e+00
 0.00000e+00
 0.00000e+00
 0.00000e+00
 0.00000e+00
 0.00000e+00
 0.00000e+00
 0.00000e+00
 0.00000e+00
 0.00000e+00
 0.00000e+00
 0.00000e+00
 0.00000e+00
 0.00000e+00
 0.00000e+00
 0.00000e+00
 0.00000e+00
 0.00000e+00
 0.00000e+00
 0.00000e+00
 0.00000e+00
 0.00000e+00
 0.00000e+00
 0.00000e+00
 0.00000e+00
 0.00000e+00
 0.00000e+00
 0.00000e+00
 0.00000e+00
 0.00000e+00
 0.00000e+00
 0.00000e+00
 0.00000e+00
 0.00000e+00
 0.00000e+00
 0.00000e+00
 0.00000e+00
 0.00000e+00
 0.00000e+00
 0.00000e+00
 0.00000e+00
 0.00000e+00
 0.00000e+00
 0.00000e+00
 0.00000e+00
 0.00000e+00
)


)


5
(

51
(
 0.00000e+00
 1.67439e-44
 7.05848e-32
 1.10982e-31
 2.69304e-21
 6.09835e-20
 1.43801e-38
 1.53871e-37
 1.20031e-36
 7.27632e-36
 3.24445e-35
 1.09021e-34
 2.20097e-34
 2.78794e-34
 2.71814e-35
 2.05618e-35
 1.58999e-35
 1.24792e-35
 9.93209e-36
 7.92088e-36
 6.32740e-36
 5.09223e-36
 4.12518e-36
 3.34541e-36
 2.70681e-36
 2.20362e-36
 1.79914e-36
 1.47708e-36
 1.21760e-36
 1.00743e-36
 8.36116e-37
 6.96956e-37
 5.78688e-37
 4.77863e-37
 3.92965e-37
 3.21141e-37
 2.59702e-37
 2.07507e-37
 1.63335e-37
 1.26163e-37
 9.53662e-38
 7.01413e-38
 4.98809e-38
 3.39081e-38
 2.16362e-38
 1.29274e-38
 6.89722e-39
 2.97324e-39
 9.87769e-40
 1.79953e-40
 0.00000e+00
)


51
(
 0.00000e+00
 8.24809e-22
 1.84160e-21
 2.69592e-21
 3.36503e-21
 3.86205e-21
 4.20707e-21
 4.42096e-21
 4.52366e-21
 4.53355e-21
 4.46733e-21
 4.34000e-21
 4.16486e-21
 3.95367e-21
 3.71666e-21
 3.46269e-21
 3.19931e-21
 2.93289e-21
 2.66870e-21
 2.41100e-21
 2.16317e-21
 1.92777e-21
 1.70667e-21
 1.50112e-21
 1.31180e-21
 1.13900e-21
 9.82602e-22
 8.42185e-22
 7.17104e-22
 6.06531e-22
 5.09513e-22
 4.25016e-22
 3.51963e-22
 2.89266e-22
 2.35855e-22
 1.90693e-22
 1.52797e-22
 1.21247e-22
 9.51914e-23
 7.38557e-23
 5.65400e-23
 4.26198e-23
 3.15434e-23
 2.28283e-23
 1.60565e-23
 1.08698e-23
 6.96427e-24
 4.08641e-24
 2.03094e-24
 6.51815e-25
 0.00000e+00
)


51
(
 0.00000e+00
 2.75826e-22
 6.68889e-22
 1.03783e-21
 1.36233e-21
 1.64007e-21
 1.87318e-21
 2.06507e-21
 2.21946e-21
 2.34000e-21
 2.43013e-21
 2.49308e-21
 2.53181e-21
 2.54904e-21
 2.54727e-21
 2.52877e-21
 2.49565e-21
 2.44982e-21
 2.39301e-21
 2.32683e-21
 2.25274e-21
 2.17205e-21
 2.08599e-21
 1.99565e-21
 1.90203e-21
 1.80603e-21
 1.70848e-21
 1.61011e-21
 1.51158e-21
 1.41349e-21
 1.31636e-21
 1.22065e-21
 1.12679e-21
 1.03512e-21
 9.45959e-22
 8.59565e-22
 7.76164e-22
 6.95942e-22
 6.19048e-22
 5.45603e-22
 4.75698e-22
 4.09403e-22
 3.46764e-22
 2.87819e-22
 2.32597e-22
 1.81141e-22
 1.33532e-22
 8.99693e-23
 5.09757e-23
 1.82249e-23
 0.00000e+00
)


51
(
 0.00000e+00
 6.76820e-23
 1.87107e-22
 3.15054e-22
 4.39157e-22
 5.55012e-22
 6.60992e-22
 7.56617e-22
 8.41932e-22
 9.17234e-22
 9.82945e-22
 1.03954e-21
 1.08751e-21
 1.12737e-21
 1.15958e-21
 1.18463e-21
 1.20296e-21
 1.21500e-21
 1.22116e-21
 1.22183e-21
 1.21736e-21
 1.20812e-21
 1.19442e-21
 1.17658e-21
 1.15489e-21
 1.12963e-21
 1.10105e-21
 1.06942e-21
 1.03497e-21
 9.97917e-22
 9.58481e-22
 9.16866e-22
 8.73264e-22
 8.27863e-22
 7.80840e-22
 7.32368e-22
 6.82614e-22
 6.31740e-22
 5.79909e-22
 5.27283e-22
 4.74027e-22
 4.20318e-22
 3.66350e-22
 3.12346e-22
 2.58588e-22
 2.05448e-22
 1.53484e-22
 1.03615e-22
 5.75790e-23
 1.92722e-23
 0.00000e+00
)


51
(
 0.00000e+00
 0.00000e+00
 0.00000e+00
 0.00000e+00
 0.00000e+00
 0.00000e+00
 0.00000e+00
 0.00000e+00
 0.00000e+00
 0.00000e+00
 0.00000e+00
 0.00000e+00
 0.00000e+00
 0.00000e+00
 0.00000e+00
 0.00000e+00
 0.00000e+00
 0.00000e+00
 0.00000e+00
 0.00000e+00
 0.00000e+00
 0.00000e+00
 0.00000e+00
 0.00000e+00
 0.00000e+00
 0.00000e+00
 0.00000e+00
 0.00000e+00
 0.00000e+00
 0.00000e+00
 0.00000e+00
 0.00000e+00
 0.00000e+00
 0.00000e+00
 0.00000e+00
 0.00000e+00
 0.00000e+00
 0.00000e+00
 0.00000e+00
 0.00000e+00
 0.00000e+00
 0.00000e+00
 0.00000e+00
 0.00000e+00
 0.00000e+00
 0.00000e+00
 0.00000e+00
 0.00000e+00
 0.00000e+00
 0.00000e+00
 0.00000e+00
)


)


5
(

51
(
 0.00000e+00
 7.86421e-44
 9.09406e-32
 1.42988e-31
 3.46967e-21
 7.90991e-20
 1.64344e-38
 1.75853e-37
 1.37178e-36
 8.31580e-36
 3.70794e-35
 1.24596e-34
 2.51540e-34
 3.18622e-34
 3.10644e-35
 2.34992e-35
 1.81713e-35
 1.42620e-35
 1.13510e-35
 9.05244e-36
 7.23131e-36
 5.81969e-36
 4.71449e-36
 3.82332e-36
 3.09349e-36
 2.51843e-36
 2.05616e-36
 1.68809e-36
 1.39154e-36
 1.15135e-36
 9.55561e-37
 7.96521e-37
 6.61358e-37
 5.46129e-37
 4.49103e-37
 3.67018e-37
 2.96803e-37
 2.37151e-37
 1.86668e-37
 1.44186e-37
 1.08990e-37
 8.01615e-38
 5.70068e-38
 3.87521e-38
 2.47271e-38
 1.47741e-38
 7.88254e-39
 3.39799e-39
 1.12888e-39
 2.05661e-40
 0.00000e+00
)


51
(
 0.00000e+00
 1.09679e-21
 2.42928e-21
 3.53576e-21
 4.39389e-21
 5.02574e-21
 5.46048e-21
 5.72698e-21
 5.85192e-21
 5.85938e-21
 5.77086e-21
 5.60542e-21
 5.37987e-21
 5.10892e-21
 4.80539e-21
 4.48035e-21
 4.14323e-21
 3.80201e-21
 3.46332e-21
 3.13256e-21
 2.81402e-21
 2.51100e-21
 2.22591e-21
 1.96042e-21
 1.71548e-21
 1.49151e-21
 1.28844e-21
 1.10581e-21
 9.42836e-22
 7.98520e-22
 6.71681e-22
 5.61027e-22
 4.65204e-22
 3.82833e-22
 3.12549e-22
 2.53029e-22
 2.03007e-22
 1.61297e-22
 1.26800e-22
 9.85080e-23
 7.55118e-23
 5.69965e-23
 4.22406e-23
 3.06119e-23
 2.15612e-23
 1.46170e-23
 9.37866e-24
 5.51124e-24
 2.74323e-24
 8.81778e-25
 0.00000e+00
)


51
(
 0.00000e+00
 3.68593e-22
 8.89190e-22
 1.37469e-21
 1.79954e-21
 2.16160e-21
 2.46436e-21
 2.71280e-21
 2.91212e-21
 3.06733e-21
 3.18310e-21
 3.26373e-21
 3.31313e-21
 3.33488e-21
 3.33222e-21
 3.30809e-21
 3.26520e-21
 3.20598e-21
 3.13267e-21
 3.04729e-21
 2.95170e-21
 2.84758e-21
 2.73646e-21
 2.61974e-21
 2.49868e-21
 2.37445e-21
 2.24807e-21
 2.12048e-21
 1.99255e-21
 1.86501e-21
 1.73856e-21
 1.61380e-21
 1.49126e-21
 1.37140e-21
 1.25464e-21
 1.14132e-21
 1.03175e-21
 9.26178e-22
 8.24811e-22
 7.27819e-22
 6.35334e-22
 5.47459e-22
 4.64272e-22
 3.85834e-22
 3.12202e-22
 2.43446e-22
 1.79693e-22
 1.21228e-22
 6.87760e-23
 2.46204e-23
 0.00000e+00
)


51
(
 0.00000e+00
 9.08467e-23
 2.50255e-22
 4.20405e-22
 5.85013e-22
 7.38382e-22
 8.78465e-22
 1.00471e-21
 1.11724e-21
 1.21651e-21
 1.30310e-21
 1.37766e-21
 1.44089e-21
 1.49344e-21
 1.53597e-21
 1.56910e-21
 1.59343e-21