/*--------------------------------*- C++ -*----------------------------------*\
| =========                 |                                                 |
| \      /  F ield          | OpenFOAM: The Open Source CFD Toolbox           |
|  \    /   O peration      | Version:  7                                     |
|   \  /    A nd            | Web:      http://www.OpenFOAM.com               |
|    \/     M anipulation   |                                                 |
\*---------------------------------------------------------------------------*/
FoamFile 
{   version     2.0;
    format      ascii;
    class       dictionary;
    location    "constant";
    object      LDMtable;
}
// * * * * * * * * * * * * * * * * * * * * * * * * * * * * * * * * * * * * * //

YuYbI_table
5
(

51
(
3.34411e-121
 7.17596e-34
 6.47615e-33
 1.48615e-33
 2.67433e-21
 1.07391e-18
 1.27018e-32
 1.44901e-32
 1.62374e-32
 1.80181e-32
 1.95703e-32
 2.07871e-32
 2.08965e-32
 2.07393e-32
 2.03640e-32
 1.98012e-32
 1.92326e-32
 1.86008e-32
 1.79657e-32
 1.71748e-32
 1.62814e-32
 1.54194e-32
 1.45687e-32
 1.36513e-32
 1.26838e-32
 1.17472e-32
 1.08283e-32
 9.95613e-33
 9.12620e-33
 8.33026e-33
 7.59577e-33
 6.90750e-33
 6.23643e-33
 5.58891e-33
 4.97587e-33
 4.39503e-33
 3.84349e-33
 3.32558e-33
 2.84124e-33
 2.39029e-33
 1.97736e-33
 1.60209e-33
 1.26656e-33
 9.69965e-34
 7.12688e-34
 4.94899e-34
 3.16806e-34
 1.78309e-34
 7.93592e-35
 1.99198e-35
3.34411e-121
)


51
(
3.34411e-121
 4.65709e-21
 1.10603e-20
 1.69572e-20
 2.20144e-20
 2.61667e-20
 2.94280e-20
 3.18459e-20
 3.34853e-20
 3.44210e-20
 3.47327e-20
 3.45022e-20
 3.38108e-20
 3.27373e-20
 3.13564e-20
 2.97380e-20
 2.79459e-20
 2.60376e-20
 2.40639e-20
 2.20687e-20
 2.00893e-20
 1.81566e-20
 1.62955e-20
 1.45253e-20
 1.28603e-20
 1.13100e-20
 9.88042e-21
 8.57387e-21
 7.39000e-21
 6.32608e-21
 5.37760e-21
 4.53861e-21
 3.80220e-21
 3.16076e-21
 2.60632e-21
 2.13078e-21
 1.72611e-21
 1.38452e-21
 1.09856e-21
 8.61244e-22
 6.66078e-22
 5.07125e-22
 3.79008e-22
 2.76916e-22
 1.96585e-22
 1.34286e-22
 8.67919e-23
 5.13586e-23
 2.57340e-23
 8.32405e-24
3.34411e-121
)


51
(
3.34411e-121
 1.54362e-21
 3.93549e-21
 6.33068e-21
 8.56248e-21
 1.05832e-20
 1.23800e-20
 1.39532e-20
 1.53091e-20
 1.64568e-20
 1.74070e-20
 1.81711e-20
 1.87610e-20
 1.91886e-20
 1.94658e-20
 1.96042e-20
 1.96154e-20
 1.95106e-20
 1.93007e-20
 1.89960e-20
 1.86068e-20
 1.81426e-20
 1.76127e-20
 1.70257e-20
 1.63901e-20
 1.57137e-20
 1.50038e-20
 1.42673e-20
 1.35107e-20
 1.27401e-20
 1.19609e-20
 1.11782e-20
 1.03968e-20
 9.62091e-21
 8.85443e-21
 8.10083e-21
 7.36325e-21
 6.64446e-21
 5.94690e-21
 5.27271e-21
 4.62373e-21
 4.00158e-21
 3.40764e-21
 2.84312e-21
 2.30919e-21
 1.80706e-21
 1.33836e-21
 9.05816e-22
 5.15473e-22
 1.85082e-22
3.34411e-121
)


51
(
3.34411e-121
 3.69332e-22
 1.06555e-21
 1.85185e-21
 2.64915e-21
 3.42432e-21
 4.16165e-21
 4.85321e-21
 5.49498e-21
 6.08508e-21
 6.62285e-21
 7.10842e-21
 7.54238e-21
 7.92564e-21
 8.25931e-21
 8.54467e-21
 8.78307e-21
 8.97594e-21
 9.12473e-21
 9.23095e-21
 9.29611e-21
 9.32173e-21
 9.30932e-21
 9.26039e-21
 9.17646e-21
 9.05902e-21
 8.90955e-21
 8.72952e-21
 8.52039e-21
 8.28359e-21
 8.02055e-21
 7.73267e-21
 7.42136e-21
 7.08800e-21
 6.73397e-21
 6.36063e-21
 5.96938e-21
 5.56160e-21
 5.13872e-21
 4.70219e-21
 4.25356e-21
 3.79449e-21
 3.32686e-21
 2.85284e-21
 2.37517e-21
 1.89751e-21
 1.42527e-21
 9.67334e-22
 5.40414e-22
 1.81865e-22
3.34411e-121
)


51
(
3.34411e-121
3.34411e-121
3.34411e-121
3.34411e-121
3.34411e-121
3.34411e-121
3.34411e-121
3.34411e-121
3.34411e-121
3.34411e-121
3.34411e-121
3.34411e-121
3.34411e-121
3.34411e-121
3.34411e-121
3.34411e-121
3.34411e-121
3.34411e-121
3.34411e-121
3.34411e-121
3.34411e-121
3.34411e-121
3.34411e-121
3.34411e-121
3.34411e-121
3.34411e-121
3.34411e-121
3.34411e-121
3.34411e-121
3.34411e-121
3.34411e-121
3.34411e-121
3.34411e-121
3.34411e-121
3.34411e-121
3.34411e-121
3.34411e-121
3.34411e-121
3.34411e-121
3.34411e-121
3.34411e-121
3.34411e-121
3.34411e-121
3.34411e-121
3.34411e-121
3.34411e-121
3.34411e-121
3.34411e-121
3.34411e-121
3.34411e-121
3.34411e-121
)


)
;