/*--------------------------------*- C++ -*----------------------------------*\
| =========                 |                                                 |
| \      /  F ield          | OpenFOAM: The Open Source CFD Toolbox           |
|  \    /   O peration      | Version:  7                                     |
|   \  /    A nd            | Web:      http://www.OpenFOAM.com               |
|    \/     M anipulation   |                                                 |
\*---------------------------------------------------------------------------*/
FoamFile 
{   version     2.0;
    format      ascii;
    class       dictionary;
    location    "constant";
    object      LDMtable;
}
// * * * * * * * * * * * * * * * * * * * * * * * * * * * * * * * * * * * * * //

YWI_table
5
(

51
(

5
(

51
(
 0.00000e+00
 2.24265e-59
 3.59516e-50
 1.29159e-51
 3.44716e-38
 3.36572e-32
 3.80735e-56
 6.01228e-57
 5.71820e-55
 3.40152e-54
 5.92793e-56
 6.87450e-55
 2.55599e-54
 2.19895e-55
 1.41018e-55
 5.07164e-56
 4.95623e-56
 3.65385e-56
 1.31291e-55
 3.20630e-56
 8.13987e-56
 5.74415e-56
 4.95129e-56
 4.63997e-57
 1.00111e-56
 2.42145e-56
 4.25707e-56
 2.71256e-56
 2.23317e-56
 1.01197e-57
 3.01682e-57
 2.04834e-56
 4.32548e-56
 5.70472e-57
 7.11603e-57
 1.30910e-56
 2.68208e-56
 1.56592e-56
 1.37852e-56
 1.00232e-56
 4.79978e-57
 6.09991e-57
 2.15960e-58
 3.60811e-59
 2.03204e-59
 1.21152e-59
 1.72092e-59
 5.50299e-60
 4.51849e-60
 1.53874e-60
 0.00000e+00
)


51
(
 0.00000e+00
 6.25064e-35
 1.47106e-34
 2.23496e-34
 2.87517e-34
 3.38646e-34
 3.77407e-34
 4.04738e-34
 4.21770e-34
 4.29717e-34
 4.29813e-34
 4.23271e-34
 4.11254e-34
 3.94853e-34
 3.75071e-34
 3.52819e-34
 3.28905e-34
 3.04034e-34
 2.78814e-34
 2.53751e-34
 2.29264e-34
 2.05683e-34
 1.83264e-34
 1.62193e-34
 1.42593e-34
 1.24539e-34
 1.08057e-34
 9.31400e-35
 7.97491e-35
 6.78233e-35
 5.72841e-35
 4.80405e-35
 3.99939e-35
 3.30415e-35
 2.70794e-35
 2.20051e-35
 1.77199e-35
 1.41295e-35
 1.11459e-35
 8.68775e-36
 6.68074e-36
 5.05776e-36
 3.75891e-36
 2.73121e-36
 1.92831e-36
 1.31008e-36
 8.42184e-37
 4.95708e-37
 2.47072e-37
 7.95018e-38
 0.00000e+00
)


51
(
 0.00000e+00
 2.10036e-35
 5.28359e-35
 8.38772e-35
 1.11978e-34
 1.36637e-34
 1.57820e-34
 1.75661e-34
 1.90364e-34
 2.02155e-34
 2.11270e-34
 2.17942e-34
 2.22397e-34
 2.24853e-34
 2.25514e-34
 2.24578e-34
 2.22227e-34
 2.18633e-34
 2.13956e-34
 2.08347e-34
 2.01942e-34
 1.94872e-34
 1.87252e-34
 1.79192e-34
 1.70790e-34
 1.62137e-34
 1.53315e-34
 1.44398e-34
 1.35452e-34
 1.26537e-34
 1.17706e-34
 1.09006e-34
 1.00477e-34
 9.21554e-35
 8.40717e-35
 7.62518e-35
 6.87174e-35
 6.14861e-35
 5.45722e-35
 4.79867e-35
 4.17377e-35
 3.58307e-35
 3.02695e-35
 2.50562e-35
 2.01923e-35
 1.56799e-35
 1.15245e-35
 7.74116e-36
 4.37243e-36
 1.55836e-36
 0.00000e+00
)


51
(
 0.00000e+00
 5.04797e-36
 1.43488e-35
 2.45748e-35
 3.46522e-35
 4.41604e-35
 5.29233e-35
 6.08726e-35
 6.79915e-35
 7.42904e-35
 7.97941e-35
 8.45349e-35
 8.85493e-35
 9.18754e-35
 9.45519e-35
 9.66171e-35
 9.81085e-35
 9.90625e-35
 9.95142e-35
 9.94974e-35
 9.90444e-35
 9.81862e-35
 9.69522e-35
 9.53705e-35
 9.34679e-35
 9.12700e-35
 8.88009e-35
 8.60837e-35
 8.31404e-35
 7.99918e-35
 7.66578e-35
 7.31573e-35
 6.95081e-35
 6.57277e-35
 6.18322e-35
 5.78375e-35
 5.37588e-35
 4.96107e-35
 4.54076e-35
 4.11638e-35
 3.68936e-35
 3.26120e-35
 2.83350e-35
 2.40809e-35
 1.98716e-35
 1.57364e-35
 1.17176e-35
 7.88452e-36
 4.36738e-36
 1.45739e-36
 0.00000e+00
)


51
(
 0.00000e+00
 0.00000e+00
 0.00000e+00
 0.00000e+00
 0.00000e+00
 0.00000e+00
 0.00000e+00
 0.00000e+00
 0.00000e+00
 0.00000e+00
 0.00000e+00
 0.00000e+00
 0.00000e+00
 0.00000e+00
 0.00000e+00
 0.00000e+00
 0.00000e+00
 0.00000e+00
 0.00000e+00
 0.00000e+00
 0.00000e+00
 0.00000e+00
 0.00000e+00
 0.00000e+00
 0.00000e+00
 0.00000e+00
 0.00000e+00
 0.00000e+00
 0.00000e+00
 0.00000e+00
 0.00000e+00
 0.00000e+00
 0.00000e+00
 0.00000e+00
 0.00000e+00
 0.00000e+00
 0.00000e+00
 0.00000e+00
 0.00000e+00
 0.00000e+00
 0.00000e+00
 0.00000e+00
 0.00000e+00
 0.00000e+00
 0.00000e+00
 0.00000e+00
 0.00000e+00
 0.00000e+00
 0.00000e+00
 0.00000e+00
 0.00000e+00
)


)


5
(

51
(
 0.00000e+00
 3.89681e-21
 1.09184e-07
 1.02118e-06
 1.90466e-08
 1.19589e-09
 4.08186e-13
 3.69382e-12
 2.46131e-11
 1.28273e-10
 5.01409e-10
 1.50810e-09
 2.87549e-09
 3.47941e-09
 3.27061e-10
 2.40503e-10
 1.80688e-10
 1.38134e-10
 1.07031e-10
 8.37952e-11
 6.61286e-11
 5.25110e-11
 4.19712e-11
 3.37766e-11
 2.72750e-11
 2.21664e-11
 1.80942e-11
 1.48382e-11
 1.22087e-11
 1.00834e-11
 8.32464e-12
 6.88657e-12
 5.68414e-12
 4.67181e-12
 3.82240e-12
 3.10833e-12
 2.50390e-12
 1.99372e-12
 1.56511e-12
 1.20748e-12
 9.11843e-13
 6.70474e-13
 4.76542e-13
 3.23858e-13
 2.06631e-13
 1.23465e-13
 6.58584e-14
 2.83734e-14
 9.41302e-15
 1.70799e-15
 0.00000e+00
)


51
(
 0.00000e+00
 1.16820e-08
 2.61276e-08
 3.78185e-08
 4.64026e-08
 5.21632e-08
 5.55115e-08
 5.68693e-08
 5.66326e-08
 5.51573e-08
 5.27552e-08
 4.96936e-08
 4.61972e-08
 4.24513e-08
 3.86053e-08
 3.47768e-08
 3.10556e-08
 2.75078e-08
 2.41794e-08
 2.10997e-08
 1.82844e-08
 1.57388e-08
 1.34597e-08
 1.14375e-08
 9.65867e-09
 8.10628e-09
 6.76180e-09
 5.60587e-09
 4.61905e-09
 3.78237e-09
 3.07775e-09
 2.48828e-09
 1.99838e-09
 1.59390e-09
 1.26215e-09
 9.91869e-10
 7.73158e-10
 5.97407e-10
 4.57190e-10
 3.46158e-10
 2.58925e-10
 1.90961e-10
 1.38484e-10
 9.83610e-11
 6.80188e-11
 4.53592e-11
 2.86886e-11
 1.66560e-11
 8.21147e-12
 2.62155e-12
 0.00000e+00
)


51
(
 0.00000e+00
 3.62047e-09
 8.92946e-09
 1.39282e-08
 1.82869e-08
 2.19558e-08
 2.49607e-08
 2.73519e-08
 2.91868e-08
 3.05240e-08
 3.14195e-08
 3.19266e-08
 3.20946e-08
 3.19688e-08
 3.15909e-08
 3.09988e-08
 3.02268e-08
 2.93060e-08
 2.82643e-08
 2.71266e-08
 2.59152e-08
 2.46500e-08
 2.33484e-08
 2.20259e-08
 2.06958e-08
 1.93699e-08
 1.80582e-08
 1.67692e-08
 1.55103e-08
 1.42874e-08
 1.31054e-08
 1.19685e-08
 1.08796e-08
 9.84100e-09
 8.85441e-09
 7.92081e-09
 7.04065e-09
 6.21397e-09
 5.44035e-09
 4.71909e-09
 4.04916e-09
 3.42935e-09
 2.85824e-09
 2.33434e-09
 1.85614e-09
 1.42221e-09
 1.03147e-09
 6.83715e-10
 3.81108e-10
 1.34051e-10
 0.00000e+00
)


51
(
 0.00000e+00
 8.49926e-10
 2.39439e-09
 4.07100e-09
 5.70352e-09
 7.22535e-09
 8.61042e-09
 9.85016e-09
 1.09443e-08
 1.18968e-08
 1.27137e-08
 1.34020e-08
 1.39695e-08
 1.44237e-08
 1.47724e-08
 1.50228e-08
 1.51822e-08
 1.52575e-08
 1.52551e-08
 1.51812e-08
 1.50418e-08
 1.48424e-08
 1.45882e-08
 1.42842e-08
 1.39351e-08
 1.35452e-08
 1.31188e-08
 1.26596e-08
 1.21713e-08
 1.16575e-08
 1.11212e-08
 1.05656e-08
 9.99352e-09
 9.40764e-09
 8.81051e-09
 8.20452e-09
 7.59195e-09
 6.97499e-09
 6.35571e-09
 5.73616e-09
 5.11835e-09
 4.50435e-09
 3.89634e-09
 3.29675e-09
 2.70851e-09
 2.13544e-09
 1.58309e-09
 1.06055e-09
 5.84873e-10
 1.94311e-10
 0.00000e+00
)


51
(
 0.00000e+00
 0.00000e+00
 0.00000e+00
 0.00000e+00
 0.00000e+00
 0.00000e+00
 0.00000e+00
 0.00000e+00
 0.00000e+00
 0.00000e+00
 0.00000e+00
 0.00000e+00
 0.00000e+00
 0.00000e+00
 0.00000e+00
 0.00000e+00
 0.00000e+00
 0.00000e+00
 0.00000e+00
 0.00000e+00
 0.00000e+00
 0.00000e+00
 0.00000e+00
 0.00000e+00
 0.00000e+00
 0.00000e+00
 0.00000e+00
 0.00000e+00
 0.00000e+00
 0.00000e+00
 0.00000e+00
 0.00000e+00
 0.00000e+00
 0.00000e+00
 0.00000e+00
 0.00000e+00
 0.00000e+00
 0.00000e+00
 0.00000e+00
 0.00000e+00
 0.00000e+00
 0.00000e+00
 0.00000e+00
 0.00000e+00
 0.00000e+00
 0.00000e+00
 0.00000e+00
 0.00000e+00
 0.00000e+00
 0.00000e+00
 0.00000e+00
)


)


5
(

51
(
 0.00000e+00
 1.55873e-20
 2.22905e-06
 2.08479e-05
 3.88845e-07
 2.45304e-08
 1.63274e-12
 1.47753e-11
 9.84524e-11
 5.13094e-10
 2.00564e-09
 6.03240e-09
 1.15020e-08
 1.39176e-08
 1.30824e-09
 9.62013e-10
 7.22751e-10
 5.52536e-10
 4.28125e-10
 3.35181e-10
 2.64515e-10
 2.10044e-10
 1.67885e-10
 1.35106e-10
 1.09100e-10
 8.86655e-11
 7.23767e-11
 5.93527e-11
 4.88349e-11
 4.03336e-11
 3.32986e-11
 2.75463e-11
 2.27366e-11
 1.86872e-11
 1.52896e-11
 1.24333e-11
 1.00156e-11
 7.97488e-12
 6.26043e-12
 4.82990e-12
 3.64737e-12
 2.68190e-12
 1.90617e-12
 1.29543e-12
 8.26524e-13
 4.93860e-13
 2.63434e-13
 1.13493e-13
 3.76521e-14
 6.83198e-15
 0.00000e+00
)


51
(
 0.00000e+00
 2.35866e-07
 5.25009e-07
 7.57954e-07
 9.28312e-07
 1.04206e-06
 1.10760e-06
 1.13349e-06
 1.12771e-06
 1.09740e-06
 1.04881e-06
 9.87259e-07
 9.17218e-07
 8.42353e-07
 7.65615e-07
 6.89323e-07
 6.15241e-07
 5.44663e-07
 4.78488e-07
 4.17287e-07
 3.61366e-07
 3.10818e-07
 2.65577e-07
 2.25454e-07
 1.90171e-07
 1.59395e-07
 1.32757e-07
 1.09870e-07
 9.03480e-08
 7.38132e-08
 5.99055e-08
 4.82879e-08
 3.86498e-08
 3.07091e-08
 2.42125e-08
 1.89350e-08
 1.46790e-08
 1.12726e-08
 8.56746e-09
 6.43689e-09
 4.77344e-09
 3.48680e-09
 2.50170e-09
 1.75588e-09
 1.19832e-09
 7.87526e-10
 4.90110e-10
 2.79521e-10
 1.35126e-10
 4.22180e-11
 0.00000e+00
)


51
(
 0.00000e+00
 7.32880e-08
 1.79946e-07
 2.80025e-07
 3.67122e-07
 4.40340e-07
 5.00248e-07
 5.47879e-07
 5.84403e-07
 6.10996e-07
 6.28790e-07
 6.38847e-07
 6.42153e-07
 6.39616e-07
 6.32065e-07
 6.20253e-07
 6.04865e-07
 5.86514e-07
 5.65757e-07
 5.43088e-07
 5.18950e-07
 4.93735e-07
 4.67791e-07
 4.41422e-07
 4.14895e-07
 3.88442e-07
 3.62263e-07
 3.36528e-07
 3.11381e-07
 2.86942e-07
 2.63312e-07
 2.40568e-07
 2.18774e-07
 1.97976e-07
 1.78207e-07
 1.59488e-07
 1.41831e-07
 1.25235e-07
 1.09695e-07
 9.51964e-08
 8.17207e-08
 6.92442e-08
 5.77399e-08
 4.71789e-08
 3.75317e-08
 2.87710e-08
 2.08763e-08
 1.38444e-08
 7.72053e-09
 2.71685e-09
 0.00000e+00
)


51
(
 0.00000e+00
 1.72773e-08
 4.84808e-08
 8.22441e-08
 1.15066e-07
 1.45640e-07
 1.73459e-07
 1.98362e-07
 2.20349e-07
 2.39502e-07
 2.55942e-07
 2.69814e-07
 2.81268e-07
 2.90457e-07
 2.97534e-07
 3.02645e-07
 3.05932e-07
 3.07532e-07
 3.07573e-07
 3.06180e-07
 3.03468e-07
 2.99548e-07
 2.94524e-07
 2.88494e-07
 2.81551e-07
 2.73783e-07
 2.65270e-07
 2.56092e-07
 2.46320e-07
 2.36023e-07
 2.25265e-07
 2.14108e-07
 2.02607e-07
 1.90818e-07
 1.78790e-07
 1.66572e-07
 1.54210e-07
 1.41748e-07
 1.29226e-07
 1.16688e-07
 1.04173e-07
 9.17226e-08
 7.93823e-08
 6.72012e-08
 5.52391e-08
 4.35742e-08
 3.23203e-08
 2.16634e-08
 1.19531e-08
 3.97313e-09
 0.00000e+00
)


51
(
 0.00000e+00
 0.00000e+00
 0.00000e+00
 0.00000e+00
 0.00000e+00
 0.00000e+00
 0.00000e+00
 0.00000e+00
 0.00000e+00
 0.00000e+00
 0.00000e+00
 0.00000e+00
 0.00000e+00
 0.00000e+00
 0.00000e+00
 0.00000e+00
 0.00000e+00
 0.00000e+00
 0.00000e+00
 0.00000e+00
 0.00000e+00
 0.00000e+00
 0.00000e+00
 0.00000e+00
 0.00000e+00
 0.00000e+00
 0.00000e+00
 0.00000e+00
 0.00000e+00
 0.00000e+00
 0.00000e+00
 0.00000e+00
 0.00000e+00
 0.00000e+00
 0.00000e+00
 0.00000e+00
 0.00000e+00
 0.00000e+00
 0.00000e+00
 0.00000e+00
 0.00000e+00
 0.00000e+00
 0.00000e+00
 0.00000e+00
 0.00000e+00
 0.00000e+00
 0.00000e+00
 0.00000e+00
 0.00000e+00
 0.00000e+00
 0.00000e+00
)


)


5
(

51
(
 0.00000e+00
 3.50713e-20
 9.28556e-06
 8.68464e-05
 1.61982e-06
 1.02698e-07
 3.67367e-12
 3.32444e-11
 2.21518e-10
 1.15446e-09
 4.51268e-09
 1.35729e-08
 2.58794e-08
 3.13147e-08
 2.94355e-09
 2.16453e-09
 1.62619e-09
 1.24321e-09
 9.63281e-10
 7.54156e-10
 5.95158e-10
 4.72599e-10
 3.77741e-10
 3.03989e-10
 2.45475e-10
 1.99497e-10
 1.62847e-10
 1.33544e-10
 1.09878e-10
 9.07507e-11
 7.49218e-11
 6.19791e-11
 5.11573e-11
 4.20463e-11
 3.44016e-11
 2.79750e-11
 2.25351e-11
 1.79435e-11
 1.40860e-11
 1.08673e-11
 8.20658e-12
 6.03426e-12
 4.28888e-12
 2.91472e-12
 1.85968e-12
 1.11119e-12
 5.92726e-13
 2.55360e-13
 8.47172e-14
 1.53719e-14
 0.00000e+00
)


51
(
 0.00000e+00
 9.78864e-07
 2.16767e-06
 3.12068e-06
 3.81478e-06
 4.27607e-06
 4.53993e-06
 4.64196e-06
 4.61512e-06
 4.48879e-06
 4.28849e-06
 4.03592e-06
 3.74922e-06
 3.44324e-06
 3.12992e-06
 2.81859e-06
 2.51638e-06
 2.22848e-06
 1.95852e-06
 1.70878e-06
 1.48050e-06
 1.27407e-06
 1.08921e-06
 9.25160e-07
 7.80812e-07
 6.54817e-07
 5.45683e-07
 4.51854e-07
 3.71761e-07
 3.03876e-07
 2.46737e-07
 1.98973e-07
 1.59323e-07
 1.26634e-07
 9.98743e-08
 7.81241e-08
 6.05750e-08
 4.65228e-08
 3.53593e-08
 2.65641e-08
 1.96957e-08
 1.43825e-08
 1.03146e-08
 7.23528e-09
 4.93400e-09
 3.23945e-09
 2.01365e-09
 1.14677e-09
 5.53408e-10
 1.72546e-10
 0.00000e+00
)


51
(
 0.00000e+00
 3.05236e-07
 7.45970e-07
 1.15801e-06
 1.51588e-06
 1.81633e-06
 2.06192e-06
 2.25707e-06
 2.40664e-06
 2.51553e-06
 2.58841e-06
 2.62965e-06
 2.64329e-06
 2.63305e-06
 2.60233e-06
 2.55419e-06
 2.49141e-06
 2.41652e-06
 2.33177e-06
 2.23916e-06
 2.14050e-06
 2.03739e-06
 1.93124e-06
 1.82329e-06
 1.71463e-06
 1.60620e-06
 1.49882e-06
 1.39319e-06
 1.28989e-06
 1.18942e-06
 1.09220e-06
 9.98545e-07
 9.08722e-07
 8.22927e-07
 7.41300e-07
 6.63936e-07
 5.90883e-07
 5.22152e-07
 4.57724e-07
 3.97548e-07
 3.41553e-07
 2.89649e-07
 2.41731e-07
 1.97687e-07
 1.57400e-07
 1.20766e-07
 8.77063e-08
 5.82161e-08
 3.24946e-08
 1.14453e-08
 0.00000e+00
)


51
(
 0.00000e+00
 7.22982e-08
 2.02045e-07
 3.41965e-07
 4.77755e-07
 6.04143e-07
 7.19116e-07
 8.22049e-07
 9.12969e-07
 9.92224e-07
 1.06032e-06
 1.11786e-06
 1.16546e-06
 1.20374e-06
 1.23333e-06
 1.25483e-06
 1.26881e-06
 1.27584e-06
 1.27643e-06
 1.27110e-06
 1.26032e-06
 1.24453e-06
 1.22416e-06
 1.19961e-06
 1.17126e-06
 1.13946e-06
 1.10455e-06
 1.06685e-06
 1.02664e-06
 9.84221e-07
 9.39844e-07
 8.93760e-07
 8.46204e-07
 7.97396e-07
 7.47545e-07
 6.96850e-07
 6.45498e-07
 5.93671e-07
 5.41543e-07
 4.89284e-07
 4.37065e-07
 3.85060e-07
 3.33455e-07
 2.82458e-07
 2.32321e-07
 1.83374e-07
 1.36098e-07
 9.12782e-08
 5.03946e-08
 1.67606e-08
 0.00000e+00
)


51
(
 0.00000e+00
 0.00000e+00
 0.00000e+00
 0.00000e+00
 0.00000e+00
 0.00000e+00
 0.00000e+00
 0.00000e+00
 0.00000e+00
 0.00000e+00
 0.00000e+00
 0.00000e+00
 0.00000e+00
 0.00000e+00
 0.00000e+00
 0.00000e+00
 0.00000e+00
 0.00000e+00
 0.00000e+00
 0.00000e+00
 0.00000e+00
 0.00000e+00
 0.00000e+00
 0.00000e+00
 0.00000e+00
 0.00000e+00
 0.00000e+00
 0.00000e+00
 0.00000e+00
 0.00000e+00
 0.00000e+00
 0.00000e+00
 0.00000e+00
 0.00000e+00
 0.00000e+00
 0.00000e+00
 0.00000e+00
 0.00000e+00
 0.00000e+00
 0.00000e+00
 0.00000e+00
 0.00000e+00
 0.00000e+00
 0.00000e+00
 0.00000e+00
 0.00000e+00
 0.00000e+00
 0.00000e+00
 0.00000e+00
 0.00000e+00
 0.00000e+00
)


)


5
(

51
(
 0.00000e+00
 6.23490e-20
 2.38290e-05
 2.22869e-04
 4.15684e-06
 2.64945e-07
 6.53097e-12
 5.91011e-11
 3.93810e-10
 2.05237e-09
 8.02254e-09
 2.41296e-08
 4.60079e-08
 5.56706e-08
 5.23297e-09
 3.84805e-09
 2.89100e-09
 2.21014e-09
 1.71250e-09
 1.34072e-09
 1.05806e-09
 8.40175e-10
 6.71539e-10
 5.40425e-10
 4.36400e-10
 3.54662e-10
 2.89507e-10
 2.37411e-10
 1.95339e-10
 1.61335e-10
 1.33194e-10
 1.10185e-10
 9.09463e-11
 7.47489e-11
 6.11584e-11
 4.97333e-11
 4.00624e-11
 3.18995e-11
 2.50417e-11
 1.93196e-11
 1.45895e-11
 1.07276e-11
 7.62467e-12
 5.18172e-12
 3.30610e-12
 1.97544e-12
 1.05373e-12
 4.53974e-13
 1.50608e-13
 2.73279e-14
 0.00000e+00
)


51
(
 0.00000e+00
 2.51670e-06
 5.54192e-06
 7.95302e-06
 9.70062e-06
 1.08559e-05
 1.15114e-05
 1.17589e-05
 1.16827e-05
 1.13574e-05
 1.08473e-05
 1.02070e-05
 9.48204e-06
 8.70942e-06
 7.91890e-06
 7.13375e-06
 6.37166e-06
 5.64560e-06
 4.96455e-06
 4.33425e-06
 3.75779e-06
 3.23613e-06
 2.76864e-06
 2.35345e-06
 1.98780e-06
 1.66836e-06
 1.39142e-06
 1.15309e-06
 9.49456e-07
 7.76698e-07
 6.31150e-07
 5.09370e-07
 4.08179e-07
 3.24678e-07
 2.56259e-07
 2.00598e-07
 1.55649e-07
 1.19624e-07
 9.09800e-08
 6.83939e-08
 5.07412e-08
 3.70747e-08
 2.66030e-08
 1.86703e-08
 1.27377e-08
 8.36632e-09
 5.20219e-09
 2.96336e-09
 1.43028e-09
 4.45963e-10
 0.00000e+00
)


51
(
 0.00000e+00
 7.87859e-07
 1.91604e-06
 2.96657e-06
 3.87687e-06
 4.63987e-06
 5.26288e-06
 5.75748e-06
 6.13639e-06
 6.41215e-06
 6.59674e-06
 6.70130e-06
 6.73611e-06
 6.71058e-06
 6.63327e-06
 6.51195e-06
 6.35363e-06
 6.16462e-06
 5.95060e-06
 5.71664e-06
 5.46725e-06
 5.20646e-06
 4.93780e-06
 4.66441e-06
 4.38903e-06
 4.11403e-06
 3.84147e-06
 3.57314e-06
 3.31051e-06
 3.05486e-06
 2.80723e-06
 2.56847e-06
 2.33925e-06
 2.12008e-06
 1.91135e-06
 1.71329e-06
 1.52607e-06
 1.34972e-06
 1.18421e-06
 1.02944e-06
 8.85245e-07
 7.51407e-07
 6.27681e-07
 5.13798e-07
 4.09482e-07
 3.14481e-07
 2.28614e-07
 1.51895e-07
 8.48681e-08
 2.99223e-08
 0.00000e+00
)


51
(
 0.00000e+00
 1.87541e-07
 5.21885e-07
 8.81173e-07
 1.22923e-06
 1.55291e-06
 1.84725e-06
 2.11078e-06
 2.34364e-06
 2.54675e-06
 2.72145e-06
 2.86925e-06
 2.99173e-06
 3.09049e-06
 3.16711e-06
 3.22310e-06
 3.25994e-06
 3.27901e-06
 3.28166e-06
 3.26915e-06
 3.24267e-06
 3.20336e-06
 3.15229e-06
 3.09046e-06
 3.01882e-06
 2.93828e-06
 2.84967e-06
 2.75380e-06
 2.65142e-06
 2.54322e-06
 2.42988e-06
 2.31203e-06
 2.19026e-06
 2.06513e-06
 1.93716e-06
 1.80688e-06
 1.67474e-06
 1.54123e-06
 1.40678e-06
 1.27183e-06
 1.13682e-06
 1.00220e-06
 8.68452e-07
 7.36119e-07
 6.05857e-07
 4.78528e-07
 3.55393e-07
 2.38513e-07
 1.31769e-07
 4.38518e-08
 0.00000e+00
)


51
(
 0.00000e+00
 0.00000e+00
 0.00000e+00
 0.00000e+00
 0.00000e+00
 0.00000e+00
 0.00000e+00
 0.00000e+00
 0.00000e+00
 0.00000e+00
 0.00000e+00
 0.00000e+00
 0.00000e+00
 0.00000e+00
 0.00000e+00
 0.00000e+00
 0.00000e+00
 0.00000e+00
 0.00000e+00
 0.00000e+00
 0.00000e+00
 0.00000e+00
 0.00000e+00
 0.00000e+00
 0.00000e+00
 0.00000e+00
 0.00000e+00
 0.00000e+00
 0.00000e+00
 0.00000e+00
 0.00000e+00
 0.00000e+00
 0.00000e+00
 0.00000e+00
 0.00000e+00
 0.00000e+00
 0.00000e+00
 0.00000e+00
 0.00000e+00
 0.00000e+00
 0.00000e+00
 0.00000e+00
 0.00000e+00
 0.00000e+00
 0.00000e+00
 0.00000e+00
 0.00000e+00
 0.00000e+00
 0.00000e+00
 0.00000e+00
 0.00000e+00
)


)


5
(

51
(
 0.00000e+00
 4.77023e-19
 4.80339e-05
 4.49254e-04
 8.37925e-06
 5.37065e-07
 1.02046e-11
 9.23454e-11
 6.15328e-10
 3.20683e-09
 1.25352e-08
 3.77025e-08
 7.18873e-08
 8.69852e-08
 8.17652e-09
 6.01258e-09
 4.51719e-09
 3.45335e-09
 2.67578e-09
 2.09488e-09
 1.65322e-09
 1.31277e-09
 1.04928e-09
 8.44415e-10
 6.81876e-10
 5.54159e-10
 4.52354e-10
 3.70955e-10
 3.05218e-10
 2.52085e-10
 2.08116e-10
 1.72164e-10
 1.42104e-10
 1.16795e-10
 9.55600e-11
 7.77083e-11
 6.25975e-11
 4.98430e-11
 3.91277e-11
 3.01869e-11
 2.27961e-11
 1.67618e-11
 1.19135e-11
 8.09644e-12
 5.16577e-12
 3.08663e-12
 1.64646e-12
 7.09334e-13
 2.35325e-13
 4.26999e-14
 0.00000e+00
)


51
(
 0.00000e+00
 5.12535e-06
 1.12182e-05
 1.60358e-05
 1.95026e-05
 2.17760e-05
 2.30504e-05
 2.35144e-05
 2.33385e-05
 2.26725e-05
 2.16444e-05
 2.03622e-05
 1.89153e-05
 1.73763e-05
 1.58036e-05
 1.42425e-05
 1.27275e-05
 1.12839e-05
 9.92946e-06
 8.67524e-06
 7.52735e-06
 6.48780e-06
 5.55536e-06
 4.72646e-06
 3.99574e-06
 3.35670e-06
 2.80209e-06
 2.32429e-06
 1.91561e-06
 1.56852e-06
 1.27577e-06
 1.03057e-06
 8.26594e-07
 6.58102e-07
 5.19894e-07
 4.07338e-07
 3.16346e-07
 2.43345e-07
 1.85241e-07
 1.39377e-07
 1.03493e-07
 7.56841e-08
 5.43537e-08
 3.81782e-08
 2.60684e-08
 1.71360e-08
 1.06636e-08
 6.07899e-09
 2.93619e-09
 9.16138e-10
 0.00000e+00
)


51
(
 0.00000e+00
 1.61076e-06
 3.89910e-06
 6.02004e-06
 7.85180e-06
 9.38310e-06
 1.06306e-05
 1.16190e-05
 1.23747e-05
 1.29236e-05
 1.32901e-05
 1.34969e-05
 1.35646e-05
 1.35122e-05
 1.33567e-05
 1.31137e-05
 1.27971e-05
 1.24194e-05
 1.19919e-05
 1.15246e-05
 1.10264e-05
 1.05053e-05
 9.96837e-06
 9.42169e-06
 8.87070e-06
 8.32015e-06
 7.77410e-06
 7.23609e-06
 6.70910e-06
 6.19566e-06
 5.69786e-06
 5.21742e-06
 4.75570e-06
 4.31377e-06
 3.89241e-06
 3.49216e-06
 3.11335e-06
 2.75610e-06
 2.42040e-06
 2.10606e-06
 1.81280e-06
 1.54023e-06
 1.28789e-06
 1.05528e-06
 8.41886e-07
 6.47231e-07
 4.70999e-07
 3.13269e-07
 1.75218e-07
 6.18425e-08
 0.00000e+00
)


51
(
 0.00000e+00
 3.85102e-07
 1.06772e-06
 1.79882e-06
 2.50566e-06
 3.16217e-06
 3.75871e-06
 4.29257e-06
 4.76421e-06
 5.17565e-06
 5.52964e-06
 5.82931e-06
 6.07791e-06
 6.27867e-06
 6.43478e-06
 6.54933e-06
 6.62524e-06
 6.66535e-06
 6.67231e-06
 6.64865e-06
 6.59678e-06
 6.51895e-06
 6.41728e-06
 6.29380e-06
 6.15039e-06
 5.98885e-06
 5.81085e-06
 5.61798e-06
 5.41173e-06
 5.19351e-06
 4.96465e-06
 4.72639e-06
 4.47993e-06
 4.22639e-06
 3.96681e-06
 3.70222e-06
 3.43358e-06
 3.16180e-06
 2.88780e-06
 2.61246e-06
 2.33666e-06
 2.06133e-06
 1.78744e-06
 1.51610e-06
 1.24867e-06
 9.86929e-07
 7.33480e-07
 4.92597e-07
 2.72325e-07
 9.06871e-08
 0.00000e+00
)


51
(
 0.00000e+00
 0.00000e+00
 0.00000e+00
 0.00000e+00
 0.00000e+00
 0.00000e+00
 0.00000e+00
 0.00000e+00
 0.00000e+00
 0.00000e+00
 0.00000e+00
 0.00000e+00
 0.00000e+00
 0.00000e+00
 0.00000e+00
 0.00000e+00
 0.00000e+00
 0.00000e+00
 0.00000e+00
 0.00000e+00
 0.00000e+00
 0.00000e+00
 0.00000e+00
 0.00000e+00
 0.00000e+00
 0.00000e+00
 0.00000e+00
 0.00000e+00
 0.00000e+00
 0.00000e+00
 0.00000e+00
 0.00000e+00
 0.00000e+00
 0.00000e+00
 0.00000e+00
 0.00000e+00
 0.00000e+00
 0.00000e+00
 0.00000e+00
 0.00000e+00
 0.00000e+00
 0.00000e+00
 0.00000e+00
 0.00000e+00
 0.00000e+00
 0.00000e+00
 0.00000e+00
 0.00000e+00
 0.00000e+00
 0.00000e+00
 0.00000e+00
)


)


5
(

51
(
 0.00000e+00
 7.61955e-18
 8.36992e-05
 7.82825e-04
 1.46009e-05
 9.41404e-07
 1.46947e-11
 1.32977e-10
 8.86072e-10
 4.61784e-09
 1.80507e-08
 5.42916e-08
 1.03518e-07
 1.25259e-07
 1.17742e-08
 8.65811e-09
 6.50476e-09
 4.97282e-09
 3.85313e-09
 3.01663e-09
 2.38063e-09
 1.89039e-09
 1.51096e-09
 1.21596e-09
 9.81901e-10
 7.97989e-10
 6.51390e-10
 5.34175e-10
 4.39514e-10
 3.63003e-10
 2.99687e-10
 2.47916e-10
 2.04629e-10
 1.68185e-10
 1.37606e-10
 1.11900e-10
 9.01404e-11
 7.17739e-11
 5.63439e-11
 4.34691e-11
 3.28263e-11
 2.41371e-11
 1.71555e-11
 1.16589e-11
 7.43871e-12
 4.44474e-12
 2.37090e-12
 1.02144e-12
 3.38869e-13
 6.14878e-14
 0.00000e+00
)


51
(
 0.00000e+00
 9.09199e-06
 1.97693e-05
 2.81276e-05
 3.40857e-05
 3.79518e-05
 4.00840e-05
 4.08211e-05
 4.04645e-05
 3.92746e-05
 3.74722e-05
 3.52419e-05
 3.27356e-05
 3.00766e-05
 2.73630e-05
 2.46715e-05
 2.20601e-05
 1.95716e-05
 1.72357e-05
 1.50713e-05
 1.30889e-05
 1.12919e-05
 9.67847e-06
 8.24261e-06
 6.97540e-06
 5.86586e-06
 4.90175e-06
 4.07015e-06
 3.35799e-06
 2.75241e-06
 2.24102e-06
 1.81215e-06
 1.45498e-06
 1.15958e-06
 9.16990e-07
 7.19193e-07
 5.59104e-07
 4.30517e-07
 3.28051e-07
 2.47077e-07
 1.83651e-07
 1.34438e-07
 9.66465e-08
 6.79534e-08
 4.64460e-08
 3.05620e-08
 1.90377e-08
 1.08637e-08
 5.25247e-09
 1.64046e-09
 0.00000e+00
)


51
(
 0.00000e+00
 2.86873e-06
 6.91271e-06
 1.06408e-05
 1.38469e-05
 1.65173e-05
 1.86856e-05
 2.03982e-05
 2.17035e-05
 2.26483e-05
 2.32762e-05
 2.36272e-05
 2.37378e-05
 2.36410e-05
 2.33667e-05
 2.29416e-05
 2.23899e-05
 2.17330e-05
 2.09903e-05
 2.01790e-05
 1.93143e-05
 1.84099e-05
 1.74778e-05
 1.65286e-05
 1.55714e-05
 1.46145e-05
 1.36648e-05
 1.27283e-05
 1.18103e-05
 1.09151e-05
 1.00464e-05
 9.20705e-06
 8.39960e-06
 7.62589e-06
 6.88732e-06
 6.18492e-06
 5.51929e-06
 4.89074e-06
 4.29929e-06
 3.74472e-06
 3.22659e-06
 2.74430e-06
 2.29713e-06
 1.88425e-06
 1.50485e-06
 1.15818e-06
 8.43758e-07
 5.61825e-07
 3.14593e-07
 1.11159e-07
 0.00000e+00
)


51
(
 0.00000e+00
 6.88561e-07
 1.90289e-06
 3.19920e-06
 4.44977e-06
 5.60943e-06
 6.66191e-06
 7.60295e-06
 8.43378e-06
 9.15824e-06
 9.78143e-06
 1.03090e-05
 1.07468e-05
 1.11007e-05
 1.13762e-05
 1.15788e-05
 1.17137e-05
 1.17858e-05
 1.17999e-05
 1.17603e-05
 1.16712e-05
 1.15365e-05
 1.13599e-05
 1.11450e-05
 1.08949e-05
 1.06128e-05
 1.03016e-05
 9.96401e-06
 9.60262e-06
 9.21986e-06
 8.81803e-06
 8.39927e-06
 7.96563e-06
 7.51906e-06
 7.06137e-06
 6.59433e-06
 6.11960e-06
 5.63880e-06
 5.15348e-06
 4.66521e-06
 4.17552e-06
 3.68605e-06
 3.19852e-06
 2.71491e-06
 2.23763e-06
 1.76987e-06
 1.31632e-06
 8.84672e-07
 4.89428e-07
 1.63096e-07
 0.00000e+00
)


51
(
 0.00000e+00
 0.00000e+00
 0.00000e+00
 0.00000e+00
 0.00000e+00
 0.00000e+00
 0.00000e+00
 0.00000e+00
 0.00000e+00
 0.00000e+00
 0.00000e+00
 0.00000e+00
 0.00000e+00
 0.00000e+00
 0.00000e+00
 0.00000e+00
 0.00000e+00
 0.00000e+00
 0.00000e+00
 0.00000e+00
 0.00000e+00
 0.00000e+00
 0.00000e+00
 0.00000e+00
 0.00000e+00
 0.00000e+00
 0.00000e+00
 0.00000e+00
 0.00000e+00
 0.00000e+00
 0.00000e+00
 0.00000e+00
 0.00000e+00
 0.00000e+00
 0.00000e+00
 0.00000e+00
 0.00000e+00
 0.00000e+00
 0.00000e+00
 0.00000e+00
 0.00000e+00
 0.00000e+00
 0.00000e+00
 0.00000e+00
 0.00000e+00
 0.00000e+00
 0.00000e+00
 0.00000e+00
 0.00000e+00
 0.00000e+00
 0.00000e+00
)


)


5
(

51
(
 0.00000e+00
 4.51395e-17
 1.32248e-04
 1.23689e-03
 2.30699e-05
 1.49686e-06
 2.00011e-11
 1.80997e-10
 1.20604e-09
 6.28540e-09
 2.45690e-08
 7.38969e-08
 1.40899e-07
 1.70491e-07
 1.60260e-08
 1.17847e-08
 8.85370e-09
 6.76857e-09
 5.24453e-09
 4.10596e-09
 3.24030e-09
 2.57304e-09
 2.05659e-09
 1.65505e-09
 1.33648e-09
 1.08615e-09
 8.86614e-10
 7.27071e-10
 5.98227e-10
 4.94087e-10
 4.07908e-10
 3.37442e-10
 2.78523e-10
 2.28919e-10
 1.87298e-10
 1.52308e-10
 1.22691e-10
 9.76922e-11
 7.66903e-11
 5.91663e-11
 4.46803e-11
 3.28532e-11
 2.33505e-11
 1.58690e-11
 1.01249e-11
 6.04979e-12
 3.22706e-12
 1.39029e-12
 4.61238e-13
 8.36917e-14
 0.00000e+00
)


51
(
 0.00000e+00
 1.46975e-05
 3.17255e-05
 4.49049e-05
 5.42003e-05
 6.01603e-05
 6.33873e-05
 6.44353e-05
 6.37872e-05
 6.18548e-05
 5.89832e-05
 5.54587e-05
 5.15151e-05
 4.73417e-05
 4.30885e-05
 3.88725e-05
 3.47827e-05
 3.08842e-05
 2.72227e-05
 2.38275e-05
 2.07147e-05
 1.78900e-05
 1.53507e-05
 1.30881e-05
 1.10886e-05
 9.33556e-06
 7.81018e-06
 6.49264e-06
 5.36278e-06
 4.40068e-06
 3.58712e-06
 2.90394e-06
 2.33420e-06
 1.86237e-06
 1.47439e-06
 1.15764e-06
 9.00947e-07
 6.94506e-07
 5.29792e-07
 3.99461e-07
 2.97245e-07
 2.17835e-07
 1.56774e-07
 1.10353e-07
 7.55116e-08
 4.97440e-08
 3.10220e-08
 1.77229e-08
 8.57869e-09
 2.68241e-09
 0.00000e+00
)


51
(
 0.00000e+00
 4.65774e-06
 1.11690e-05
 1.71359e-05
 2.22431e-05
 2.64796e-05
 2.99067e-05
 3.26040e-05
 3.46527e-05
 3.61296e-05
 3.71059e-05
 3.76462e-05
 3.78087e-05
 3.76461e-05
 3.72054e-05
 3.65288e-05
 3.56542e-05
 3.46152e-05
 3.34418e-05
 3.21609e-05
 3.07963e-05
 2.93690e-05
 2.78976e-05
 2.63986e-05
 2.48864e-05
 2.33736e-05
 2.18711e-05
 2.03884e-05
 1.89335e-05
 1.75135e-05
 1.61339e-05
 1.47996e-05
 1.35144e-05
 1.22815e-05
 1.11030e-05
 9.98078e-06
 8.91584e-06
 7.90880e-06
 6.95981e-06
 6.06864e-06
 5.23473e-06
 4.45726e-06
 3.73519e-06
 3.06736e-06
 2.45258e-06
 1.88980e-06
 1.37839e-06
 9.18911e-07
 5.15159e-07
 1.82243e-07
 0.00000e+00
)


51
(
 0.00000e+00
 1.12263e-06
 3.09192e-06
 5.18679e-06
 7.20292e-06
 9.06916e-06
 1.07606e-05
 1.22714e-05
 1.36042e-05
 1.47657e-05
 1.57646e-05
 1.66102e-05
 1.73121e-05
 1.78797e-05
 1.83222e-05
 1.86484e-05
 1.88666e-05
 1.89846e-05
 1.90100e-05
 1.89498e-05
 1.88105e-05
 1.85985e-05
 1.83194e-05
 1.79789e-05
 1.75821e-05
 1.71338e-05
 1.66386e-05
 1.61008e-05
 1.55244e-05
 1.49133e-05
 1.42711e-05
 1.36010e-05
 1.29064e-05
 1.21902e-05
 1.14554e-05
 1.07047e-05
 9.94065e-06
 9.16590e-06
 8.38289e-06
 7.59408e-06
 6.80195e-06
 6.00908e-06
 5.21826e-06
 4.43269e-06
 3.65629e-06
 2.89426e-06
 2.15427e-06
 1.44899e-06
 8.02249e-07
 2.67536e-07
 0.00000e+00
)


51
(
 0.00000e+00
 0.00000e+00
 0.00000e+00
 0.00000e+00
 0.00000e+00
 0.00000e+00
 0.00000e+00
 0.00000e+00
 0.00000e+00
 0.00000e+00
 0.00000e+00
 0.00000e+00
 0.00000e+00
 0.00000e+00
 0.00000e+00
 0.00000e+00
 0.00000e+00
 0.00000e+00
 0.00000e+00
 0.00000e+00
 0.00000e+00
 0.00000e+00
 0.00000e+00
 0.00000e+00
 0.00000e+00
 0.00000e+00
 0.00000e+00
 0.00000e+00
 0.00000e+00
 0.00000e+00
 0.00000e+00
 0.00000e+00
 0.00000e+00
 0.00000e+00
 0.00000e+00
 0.00000e+00
 0.00000e+00
 0.00000e+00
 0.00000e+00
 0.00000e+00
 0.00000e+00
 0.00000e+00
 0.00000e+00
 0.00000e+00
 0.00000e+00
 0.00000e+00
 0.00000e+00
 0.00000e+00
 0.00000e+00
 0.00000e+00
 0.00000e+00
)


)


5
(

51
(
 0.00000e+00
 2.42296e-16
 1.94727e-04
 1.82125e-03
 3.39691e-05
 2.21887e-06
 2.61239e-11
 2.36404e-10
 1.57524e-09
 8.20950e-09
 3.20902e-08
 9.65184e-08
 1.84032e-07
 2.22682e-07
 2.09319e-08
 1.53922e-08
 1.15640e-08
 8.84058e-09
 6.85000e-09
 5.36289e-09
 4.23223e-09
 3.36070e-09
 2.68615e-09
 2.16170e-09
 1.74560e-09
 1.41865e-09
 1.15803e-09
 9.49644e-10
 7.81358e-10
 6.45338e-10
 5.32777e-10
 4.40740e-10
 3.63785e-10
 2.98996e-10
 2.44634e-10
 1.98933e-10
 1.60250e-10
 1.27598e-10
 1.00167e-10
 7.72784e-11
 5.83579e-11
 4.29103e-11
 3.04987e-11
 2.07269e-11
 1.32244e-11
 7.90177e-12
 4.21494e-12
 1.81590e-12
 6.02433e-13
 1.09312e-13
 0.00000e+00
)


51
(
 0.00000e+00
 2.22506e-05
 4.76433e-05
 6.70448e-05
 8.05638e-05
 8.91151e-05
 9.36474e-05
 9.50073e-05
 9.39179e-05
 9.09859e-05
 8.67140e-05
 8.15149e-05
 7.57242e-05
 6.96115e-05
 6.33907e-05
 5.72279e-05
 5.12497e-05
 4.55489e-05
 4.01908e-05
 3.52175e-05
 3.06528e-05
 2.65052e-05
 2.27716e-05
 1.94398e-05
 1.64911e-05
 1.39018e-05
 1.16453e-05
 9.69317e-06
 8.01654e-06
 6.58664e-06
 5.37568e-06
 4.35724e-06
 3.50666e-06
 2.80125e-06
 2.22035e-06
 1.74543e-06
 1.36002e-06
 1.04964e-06
 8.01646e-07
 6.05157e-07
 4.50842e-07
 3.30792e-07
 2.38355e-07
 1.67982e-07
 1.15085e-07
 7.59072e-08
 4.73972e-08
 2.71121e-08
 1.31402e-08
 4.11397e-09
 0.00000e+00
)


51
(
 0.00000e+00
 7.08550e-06
 1.69017e-05
 2.58380e-05
 3.34456e-05
 3.97268e-05
 4.47866e-05
 4.87530e-05
 5.17535e-05
 5.39069e-05
 5.53214e-05
 5.60947e-05
 5.63141e-05
 5.60576e-05
 5.53949e-05
 5.43879e-05
 5.30919e-05
 5.15560e-05
 4.98241e-05
 4.79348e-05
 4.59226e-05
 4.38181e-05
 4.16483e-05
 3.94368e-05
 3.72046e-05
 3.49700e-05
 3.27489e-05
 3.05551e-05
 2.84003e-05
 2.62947e-05
 2.42469e-05
 2.22638e-05
 2.03513e-05
 1.85140e-05
 1.67555e-05
 1.50785e-05
 1.34847e-05
 1.19752e-05
 1.05504e-05
 9.21029e-06
 7.95413e-06
 6.78093e-06
 5.68936e-06
 4.67791e-06
 3.74500e-06
 2.88929e-06
 2.11009e-06
 1.40850e-06
 7.90645e-07
 2.80052e-07
 0.00000e+00
)


51
(
 0.00000e+00
 1.71530e-06
 4.70747e-06
 7.87851e-06
 1.09223e-05
 1.37343e-05
 1.62788e-05
 1.85488e-05
 2.05493e-05
 2.22916e-05
 2.37892e-05
 2.50567e-05
 2.61090e-05
 2.69604e-05
 2.76249e-05
 2.81157e-05
 2.84453e-05