/*--------------------------------*- C++ -*----------------------------------*\
| =========                 |                                                 |
| \      /  F ield          | OpenFOAM: The Open Source CFD Toolbox           |
|  \    /   O peration      | Version:  7                                     |
|   \  /    A nd            | Web:      http://www.OpenFOAM.com               |
|    \/     M anipulation   |                                                 |
\*---------------------------------------------------------------------------*/
FoamFile 
{   version     2.0;
    format      ascii;
    class       dictionary;
    location    "constant";
    object      LDMtable;
}
// * * * * * * * * * * * * * * * * * * * * * * * * * * * * * * * * * * * * * //

alpha_table
51
(

51
(
 2.46354e-05
 2.43280e-05
 2.50725e-05
 2.47191e-05
 2.43907e-05
 2.40843e-05
 2.28529e-05
 2.25733e-05
 2.22988e-05
 2.20294e-05
 2.17650e-05
 2.15057e-05
 2.12513e-05
 2.10017e-05
 2.07569e-05
 2.05169e-05
 2.02814e-05
 2.00506e-05
 1.98241e-05
 1.96021e-05
 1.93843e-05
 1.91708e-05
 1.89613e-05
 1.87558e-05
 1.85543e-05
 1.83566e-05
 1.81626e-05
 1.79723e-05
 1.77856e-05
 1.76024e-05
 1.74225e-05
 1.72460e-05
 1.70728e-05
 1.69027e-05
 1.67357e-05
 1.65718e-05
 1.64108e-05
 1.62527e-05
 1.60973e-05
 1.59448e-05
 1.57949e-05
 1.56476e-05
 1.55029e-05
 1.53607e-05
 1.52209e-05
 1.50835e-05
 1.49484e-05
 1.48156e-05
 1.46850e-05
 1.45566e-05
 1.44302e-05
)


51
(
 2.46354e-05
 2.52595e-05
 2.51006e-05
 2.47534e-05
 2.45236e-05
 2.54547e-05
 2.47293e-05
 2.42876e-05
 2.38636e-05
 2.34595e-05
 2.30746e-05
 2.27077e-05
 2.23593e-05
 2.20303e-05
 2.17722e-05
 2.14820e-05
 2.11992e-05
 2.09235e-05
 2.06545e-05
 2.03921e-05
 2.01358e-05
 1.98854e-05
 1.96408e-05
 1.94017e-05
 1.91679e-05
 1.89391e-05
 1.87153e-05
 1.84962e-05
 1.82815e-05
 1.80714e-05
 1.78653e-05
 1.76634e-05
 1.74654e-05
 1.72712e-05
 1.70806e-05
 1.68935e-05
 1.67099e-05
 1.65294e-05
 1.63521e-05
 1.61779e-05
 1.60065e-05
 1.58379e-05
 1.56721e-05
 1.55088e-05
 1.53480e-05
 1.51896e-05
 1.50335e-05
 1.48796e-05
 1.47278e-05
 1.45780e-05
 1.44302e-05
)


51
(
 2.46354e-05
 2.61909e-05
 2.53552e-05
 2.50710e-05
 2.49128e-05
 2.68792e-05
 2.66056e-05
 2.60018e-05
 2.54284e-05
 2.48896e-05
 2.43841e-05
 2.39096e-05
 2.34673e-05
 2.30590e-05
 2.27875e-05
 2.24472e-05
 2.21170e-05
 2.17965e-05
 2.14850e-05
 2.11821e-05
 2.08873e-05
 2.06001e-05
 2.03203e-05
 2.00476e-05
 1.97814e-05
 1.95217e-05
 1.92680e-05
 1.90200e-05
 1.87775e-05
 1.85404e-05
 1.83081e-05
 1.80808e-05
 1.78581e-05
 1.76396e-05
 1.74254e-05
 1.72153e-05
 1.70089e-05
 1.68062e-05
 1.66069e-05
 1.64110e-05
 1.62181e-05
 1.60283e-05
 1.58413e-05
 1.56569e-05
 1.54750e-05
 1.52957e-05
 1.51186e-05
 1.49435e-05
 1.47705e-05
 1.45995e-05
 1.44302e-05
)


51
(
 2.46354e-05
 2.71224e-05
 2.58606e-05
 2.57022e-05
 2.55536e-05
 2.83155e-05
 2.84820e-05
 2.77161e-05
 2.69932e-05
 2.63197e-05
 2.56937e-05
 2.51115e-05
 2.45754e-05
 2.40876e-05
 2.38028e-05
 2.34123e-05
 2.30348e-05
 2.26694e-05
 2.23154e-05
 2.19721e-05
 2.16387e-05
 2.13148e-05
 2.09998e-05
 2.06935e-05
 2.03950e-05
 2.01043e-05
 1.98206e-05
 1.95438e-05
 1.92734e-05
 1.90094e-05
 1.87509e-05
 1.84982e-05
 1.82507e-05
 1.80081e-05
 1.77703e-05
 1.75370e-05
 1.73080e-05
 1.70830e-05
 1.68617e-05
 1.66440e-05
 1.64297e-05
 1.62186e-05
 1.60104e-05
 1.58050e-05
 1.56021e-05
 1.54018e-05
 1.52036e-05
 1.50075e-05
 1.48133e-05
 1.46209e-05
 1.44302e-05
)


51
(
 2.46354e-05
 2.80539e-05
 2.65978e-05
 2.66232e-05
 2.64279e-05
 2.97627e-05
 3.03583e-05
 2.94304e-05
 2.85580e-05
 2.77498e-05
 2.70032e-05
 2.63135e-05
 2.56834e-05
 2.51163e-05
 2.48180e-05
 2.43774e-05
 2.39525e-05
 2.35423e-05
 2.31458e-05
 2.27621e-05
 2.23902e-05
 2.20295e-05
 2.16793e-05
 2.13394e-05
 2.10086e-05
 2.06868e-05
 2.03733e-05
 2.00677e-05
 1.97694e-05
 1.94784e-05
 1.91937e-05
 1.89156e-05
 1.86433e-05
 1.83765e-05
 1.81151e-05
 1.78588e-05
 1.76071e-05
 1.73597e-05
 1.71165e-05
 1.68771e-05
 1.66414e-05
 1.64089e-05
 1.61796e-05
 1.59531e-05
 1.57292e-05
 1.55079e-05
 1.52887e-05
 1.50714e-05
 1.48560e-05
 1.46423e-05
 1.44302e-05
)


51
(
 2.46354e-05
 2.88427e-05
 2.75482e-05
 2.78104e-05
 2.75174e-05
 3.12199e-05
 3.22347e-05
 3.11446e-05
 3.01228e-05
 2.91799e-05
 2.83128e-05
 2.75154e-05
 2.67914e-05
 2.61449e-05
 2.58333e-05
 2.53426e-05
 2.48703e-05
 2.44153e-05
 2.39762e-05
 2.35520e-05
 2.31417e-05
 2.27441e-05
 2.23589e-05
 2.19853e-05
 2.16222e-05
 2.12694e-05
 2.09260e-05
 2.05915e-05
 2.02653e-05
 1.99474e-05
 1.96365e-05
 1.93330e-05
 1.90360e-05
 1.87450e-05
 1.84600e-05
 1.81805e-05
 1.79062e-05
 1.76365e-05
 1.73713e-05
 1.71102e-05
 1.68530e-05
 1.65993e-05
 1.63488e-05
 1.61012e-05
 1.58563e-05
 1.56139e-05
 1.53737e-05
 1.51354e-05
 1.48988e-05
 1.46638e-05
 1.44302e-05
)


51
(
 2.46354e-05
 2.95345e-05
 2.86928e-05
 2.92400e-05
 2.88039e-05
 3.26863e-05
 3.41111e-05
 3.28589e-05
 3.16876e-05
 3.06100e-05
 2.96223e-05
 2.87174e-05
 2.78994e-05
 2.71736e-05
 2.68486e-05
 2.63077e-05
 2.57881e-05
 2.52882e-05
 2.48066e-05
 2.43420e-05
 2.38931e-05
 2.34588e-05
 2.30384e-05
 2.26312e-05
 2.22358e-05
 2.18519e-05
 2.14786e-05
 2.11153e-05
 2.07613e-05
 2.04164e-05
 2.00792e-05
 1.97504e-05
 1.94286e-05
 1.91135e-05
 1.88048e-05
 1.85023e-05
 1.82052e-05
 1.79133e-05
 1.76261e-05
 1.73433e-05
 1.70646e-05
 1.67896e-05
 1.65180e-05
 1.62493e-05
 1.59834e-05
 1.57200e-05
 1.54588e-05
 1.51993e-05
 1.49416e-05
 1.46852e-05
 1.44302e-05
)


51
(
 2.46354e-05
 3.02481e-05
 3.00130e-05
 3.08884e-05
 3.02693e-05
 3.41608e-05
 3.59874e-05
 3.45731e-05
 3.32524e-05
 3.20401e-05
 3.09319e-05
 2.99193e-05
 2.90074e-05
 2.82022e-05
 2.78639e-05
 2.72728e-05
 2.67058e-05
 2.61612e-05
 2.56371e-05
 2.51320e-05
 2.46446e-05
 2.41735e-05
 2.37179e-05
 2.32771e-05
 2.28493e-05
 2.24345e-05
 2.20313e-05
 2.16391e-05
 2.12573e-05
 2.08854e-05
 2.05220e-05
 2.01678e-05
 1.98212e-05
 1.94819e-05
 1.91496e-05
 1.88240e-05
 1.85043e-05
 1.81900e-05
 1.78809e-05
 1.75764e-05
 1.72762e-05
 1.69799e-05
 1.66872e-05
 1.63974e-05
 1.61104e-05
 1.58261e-05
 1.55438e-05
 1.52633e-05
 1.49843e-05
 1.47066e-05
 1.44302e-05
)


51
(
 2.46354e-05
 3.09777e-05
 3.14899e-05
 3.27317e-05
 3.18954e-05
 3.56428e-05
 3.78638e-05
 3.62874e-05
 3.48172e-05
 3.34702e-05
 3.22414e-05
 3.11212e-05
 3.01155e-05
 2.92308e-05
 2.88792e-05
 2.82380e-05
 2.76236e-05
 2.70341e-05
 2.64675e-05
 2.59220e-05
 2.53961e-05
 2.48881e-05
 2.43974e-05
 2.39230e-05
 2.34629e-05
 2.30170e-05
 2.25839e-05
 2.21630e-05
 2.17532e-05
 2.13544e-05
 2.09648e-05
 2.05851e-05
 2.02139e-05
 1.98504e-05
 1.94945e-05
 1.91458e-05
 1.88034e-05
 1.84668e-05
 1.81357e-05
 1.78095e-05
 1.74879e-05
 1.71703e-05
 1.68563e-05
 1.65455e-05
 1.62375e-05
 1.59322e-05
 1.56289e-05
 1.53272e-05
 1.50271e-05
 1.47281e-05
 1.44302e-05
)


51
(
 2.46354e-05
 3.17135e-05
 3.31047e-05
 3.47463e-05
 3.36640e-05
 3.71311e-05
 3.96290e-05
 3.80016e-05
 3.63820e-05
 3.49003e-05
 3.35510e-05
 3.23232e-05
 3.12235e-05
 3.02595e-05
 2.98945e-05
 2.92031e-05
 2.85414e-05
 2.79070e-05
 2.72979e-05
 2.67120e-05
 2.61475e-05
 2.56028e-05
 2.50769e-05
 2.45689e-05
 2.40765e-05
 2.35996e-05
 2.31366e-05
 2.26868e-05
 2.22492e-05
 2.18234e-05
 2.14076e-05
 2.10025e-05
 2.06065e-05
 2.02188e-05
 1.98393e-05
 1.94676e-05
 1.91025e-05
 1.87436e-05
 1.83905e-05
 1.80426e-05
 1.76995e-05
 1.73606e-05
 1.70255e-05
 1.66937e-05
 1.63646e-05
 1.60383e-05
 1.57140e-05
 1.53912e-05
 1.50698e-05
 1.47495e-05
 1.44302e-05
)


51
(
 2.46354e-05
 3.24513e-05
 3.48387e-05
 3.69085e-05
 3.55569e-05
 3.86251e-05
 4.07844e-05
 3.97159e-05
 3.79468e-05
 3.63304e-05
 3.48605e-05
 3.35251e-05
 3.23315e-05
 3.12881e-05
 3.09097e-05
 3.01683e-05
 2.94591e-05
 2.87800e-05
 2.81283e-05
 2.75020e-05
 2.68990e-05
 2.63175e-05
 2.57565e-05
 2.52149e-05
 2.46901e-05
 2.41821e-05
 2.36893e-05
 2.32106e-05
 2.27451e-05
 2.22924e-05
 2.18504e-05
 2.14199e-05
 2.09992e-05
 2.05873e-05
 2.01842e-05
 1.97893e-05
 1.94015e-05
 1.90204e-05
 1.86453e-05
 1.82757e-05
 1.79111e-05
 1.75509e-05
 1.71947e-05
 1.68418e-05
 1.64917e-05
 1.61444e-05
 1.57990e-05
 1.54551e-05
 1.51126e-05
 1.47710e-05
 1.44302e-05
)


51
(
 2.46354e-05
 3.31876e-05
 3.66730e-05
 3.91945e-05
 3.75560e-05
 4.01238e-05
 4.19418e-05
 4.10965e-05
 3.95117e-05
 3.77605e-05
 3.61700e-05
 3.47270e-05
 3.34395e-05
 3.23168e-05
 3.19250e-05
 3.11334e-05
 3.03769e-05
 2.96529e-05
 2.89587e-05
 2.82920e-05
 2.76505e-05
 2.70322e-05
 2.64360e-05
 2.58608e-05
 2.53036e-05
 2.47647e-05
 2.42419e-05
 2.37345e-05
 2.32411e-05
 2.27614e-05
 2.22932e-05
 2.18373e-05
 2.13918e-05
 2.09557e-05
 2.05290e-05
 2.01111e-05
 1.97006e-05
 1.92971e-05
 1.89000e-05
 1.85088e-05
 1.81227e-05
 1.77413e-05
 1.73639e-05
 1.69899e-05
 1.66188e-05
 1.62505e-05
 1.58841e-05
 1.55191e-05
 1.51554e-05
 1.47924e-05
 1.44302e-05
)


51
(
 2.46354e-05
 3.39218e-05
 3.85889e-05
 4.15806e-05
 3.96430e-05
 4.16262e-05
 4.31024e-05
 4.21340e-05
 4.10765e-05
 3.91906e-05
 3.74796e-05
 3.59290e-05
 3.45475e-05
 3.33454e-05
 3.29403e-05
 3.20985e-05
 3.12947e-05
 3.05259e-05
 2.97891e-05
 2.90820e-05
 2.84019e-05
 2.77468e-05
 2.71155e-05
 2.65067e-05
 2.59172e-05
 2.53472e-05
 2.47946e-05
 2.42583e-05
 2.37370e-05
 2.32304e-05
 2.27359e-05
 2.22547e-05
 2.17844e-05
 2.13242e-05
 2.08739e-05
 2.04328e-05
 1.99997e-05
 1.95739e-05
 1.91548e-05
 1.87419e-05
 1.83343e-05
 1.79316e-05
 1.75330e-05
 1.71380e-05
 1.67458e-05
 1.63566e-05
 1.59691e-05
 1.55830e-05
 1.51981e-05
 1.48138e-05
 1.44302e-05
)


51
(
 2.46354e-05
 3.46548e-05
 4.05675e-05
 4.40431e-05
 4.17997e-05
 4.31316e-05
 4.42645e-05
 4.31726e-05
 4.21827e-05
 4.06207e-05
 3.87891e-05
 3.71309e-05
 3.56556e-05
 3.43741e-05
 3.39556e-05
 3.30637e-05
 3.22125e-05
 3.13988e-05
 3.06196e-05
 2.98720e-05
 2.91534e-05
 2.84615e-05
 2.77950e-05
 2.71526e-05
 2.65308e-05
 2.59298e-05
 2.53473e-05
 2.47821e-05
 2.42330e-05
 2.36994e-05
 2.31787e-05
 2.26721e-05
 2.21771e-05
 2.16926e-05
 2.12187e-05
 2.07546e-05
 2.02988e-05
 1.98507e-05
 1.94096e-05
 1.89750e-05
 1.85460e-05
 1.81219e-05
 1.77022e-05
 1.72861e-05
 1.68729e-05
 1.64627e-05
 1.60542e-05
 1.56470e-05
 1.52409e-05
 1.48353e-05
 1.44302e-05
)


51
(
 2.46354e-05
 3.53869e-05
 4.25901e-05
 4.65583e-05
 4.40080e-05
 4.46390e-05
 4.54254e-05
 4.42129e-05
 4.31163e-05
 4.20508e-05
 4.00987e-05
 3.83329e-05
 3.67636e-05
 3.54027e-05
 3.49709e-05
 3.40288e-05
 3.31302e-05
 3.22718e-05
 3.14500e-05
 3.06620e-05
 2.99049e-05
 2.91762e-05
 2.84745e-05
 2.77985e-05
 2.71444e-05
 2.65123e-05
 2.58999e-05
 2.53060e-05
 2.47289e-05
 2.41684e-05
 2.36215e-05
 2.30895e-05
 2.25697e-05
 2.20611e-05
 2.15636e-05
 2.10763e-05
 2.05978e-05
 2.01274e-05
 1.96644e-05
 1.92080e-05
 1.87576e-05
 1.83123e-05
 1.78714e-05
 1.74342e-05
 1.70000e-05
 1.65688e-05
 1.61392e-05
 1.57110e-05
 1.52836e-05
 1.48567e-05
 1.44302e-05
)


51
(
 2.46354e-05
 3.61189e-05
 4.46379e-05
 4.91024e-05
 4.62497e-05
 4.61476e-05
 4.65851e-05
 4.52544e-05
 4.40502e-05
 4.29716e-05
 4.14082e-05
 3.95348e-05
 3.78716e-05
 3.64314e-05
 3.59862e-05
 3.49939e-05
 3.40480e-05
 3.31447e-05
 3.22804e-05
 3.14519e-05
 3.06563e-05
 2.98909e-05
 2.91541e-05
 2.84444e-05
 2.77580e-05
 2.70949e-05
 2.64526e-05
 2.58298e-05
 2.52249e-05
 2.46374e-05
 2.40643e-05
 2.35069e-05
 2.29623e-05
 2.24296e-05
 2.19084e-05
 2.13981e-05
 2.08969e-05
 2.04042e-05
 1.99192e-05
 1.94411e-05
 1.89692e-05
 1.85026e-05
 1.80406e-05
 1.75823e-05
 1.71271e-05
 1.66749e-05
 1.62243e-05
 1.57749e-05
 1.53264e-05
 1.48781e-05
 1.44302e-05
)


51
(
 2.46354e-05
 3.68525e-05
 4.66921e-05
 5.16518e-05
 4.85065e-05
 4.76564e-05
 4.77347e-05
 4.62950e-05
 4.49844e-05
 4.38138e-05
 4.27178e-05
 4.07367e-05
 3.89796e-05
 3.74600e-05
 3.70015e-05
 3.59591e-05
 3.49658e-05
 3.40176e-05
 3.31108e-05
 3.22419e-05
 3.14078e-05
 3.06055e-05
 2.98336e-05
 2.90903e-05
 2.83715e-05
 2.76775e-05
 2.70053e-05
 2.63536e-05
 2.57208e-05
 2.51064e-05
 2.45071e-05
 2.39242e-05
 2.33550e-05
 2.27980e-05
 2.22533e-05
 2.17198e-05
 2.11960e-05
 2.06810e-05
 2.01740e-05
 1.96742e-05
 1.91808e-05
 1.86929e-05
 1.82098e-05
 1.77304e-05
 1.72542e-05
 1.67810e-05
 1.63093e-05
 1.58389e-05
 1.53692e-05
 1.48996e-05
 1.44302e-05
)


51
(
 2.46354e-05
 3.75895e-05
 4.87338e-05
 5.41827e-05
 5.07604e-05
 4.91646e-05
 4.88843e-05
 4.73332e-05
 4.59185e-05
 4.46548e-05
 4.35187e-05
 4.19387e-05
 4.00876e-05
 3.84886e-05
 3.80167e-05
 3.69242e-05
 3.58835e-05
 3.48906e-05
 3.39412e-05
 3.30319e-05
 3.21593e-05
 3.13202e-05
 3.05131e-05
 2.97362e-05
 2.89851e-05
 2.82600e-05
 2.75579e-05
 2.68775e-05
 2.62168e-05
 2.55754e-05
 2.49498e-05
 2.43416e-05
 2.37476e-05
 2.31665e-05
 2.25981e-05
 2.20416e-05
 2.14951e-05
 2.09578e-05
 2.04288e-05
 1.99073e-05
 1.93924e-05
 1.88833e-05
 1.83789e-05
 1.78785e-05
 1.73812e-05
 1.68871e-05
 1.63944e-05
 1.59028e-05
 1.54119e-05
 1.49210e-05
 1.44302e-05
)


51
(
 2.46354e-05
 3.83321e-05
 5.07443e-05
 5.66715e-05
 5.29931e-05
 5.06713e-05
 5.00127e-05
 4.83674e-05
 4.68526e-05
 4.54953e-05
 4.42783e-05
 4.31406e-05
 4.11957e-05
 3.95173e-05
 3.90320e-05
 3.78893e-05
 3.68013e-05
 3.57635e-05
 3.47717e-05
 3.38219e-05
 3.29107e-05
 3.20349e-05
 3.11926e-05
 3.03821e-05
 2.95987e-05
 2.88426e-05
 2.81106e-05
 2.74013e-05
 2.67128e-05
 2.60444e-05
 2.53926e-05
 2.47590e-05
 2.41402e-05
 2.35349e-05
 2.29430e-05
 2.23633e-05
 2.17941e-05
 2.12345e-05
 2.06836e-05
 2.01404e-05
 1.96041e-05
 1.90736e-05
 1.85481e-05
 1.80266e-05
 1.75083e-05
 1.69932e-05
 1.64795e-05
 1.59668e-05
 1.54547e-05
 1.49425e-05
 1.44302e-05
)


51
(
 2.46354e-05
 3.90782e-05
 5.27049e-05
 5.90943e-05
 5.51864e-05
 5.21756e-05
 5.11379e-05
 4.93915e-05
 4.77816e-05
 4.63317e-05
 4.50346e-05
 4.38439e-05
 4.23037e-05
 4.05459e-05
 4.00473e-05
 3.88545e-05
 3.77191e-05
 3.66365e-05
 3.56021e-05
 3.46119e-05
 3.36622e-05
 3.27496e-05
 3.18721e-05
 3.10280e-05
 3.02123e-05
 2.94251e-05
 2.86633e-05
 2.79251e-05
 2.72087e-05
 2.65134e-05
 2.58354e-05
 2.51764e-05
 2.45329e-05
 2.39034e-05
 2.32878e-05
 2.26851e-05
 2.20932e-05
 2.15113e-05
 2.09384e-05
 2.03735e-05
 1.98157e-05
 1.92639e-05
 1.87173e-05
 1.81747e-05
 1.76354e-05
 1.70993e-05
 1.65645e-05
 1.60307e-05
 1.54974e-05
 1.49639e-05
 1.44302e-05
)


51
(
 2.46354e-05
 3.98333e-05
 5.45966e-05
 6.14274e-05
 5.73222e-05
 5.36765e-05
 5.22631e-05
 5.04155e-05
 4.87079e-05
 4.71676e-05
 4.57887e-05
 4.45261e-05
 4.33518e-05
 4.15746e-05
 4.10626e-05
 3.98196e-05
 3.86368e-05
 3.75094e-05
 3.64325e-05
 3.54019e-05
 3.44137e-05
 3.34642e-05
 3.25516e-05
 3.16739e-05
 3.08259e-05
 3.00077e-05
 2.92159e-05
 2.84490e-05
 2.77047e-05
 2.69824e-05
 2.62782e-05
 2.55938e-05
 2.49255e-05
 2.42718e-05
 2.36326e-05
 2.30068e-05
 2.23923e-05
 2.17881e-05
 2.11932e-05
 2.06066e-05
 2.00273e-05
 1.94543e-05
 1.88865e-05
 1.83228e-05
 1.77625e-05
 1.72054e-05
 1.66496e-05
 1.60947e-05
 1.55402e-05
 1.49853e-05
 1.44302e-05
)


51
(
 2.46354e-05
 4.05920e-05
 5.64008e-05
 6.36472e-05
 5.93823e-05
 5.51734e-05
 5.33635e-05
 5.24227e-05
 5.02730e-05
 4.80434e-05
 4.71682e-05
 4.55690e-05
 4.39646e-05
 4.26032e-05
 4.20779e-05
 4.07848e-05
 3.95546e-05
 3.83823e-05
 3.72629e-05
 3.61919e-05
 3.51651e-05
 3.41789e-05
 3.32312e-05
 3.23198e-05
 3.14394e-05
 3.05902e-05
 2.97686e-05
 2.89728e-05
 2.82006e-05
 2.74514e-05
 2.67210e-05
 2.60112e-05
 2.53182e-05
 2.46403e-05
 2.39775e-05
 2.33286e-05
 2.26914e-05
 2.20648e-05
 2.14480e-05
 2.08397e-05
 2.02389e-05
 1.96446e-05
 1.90556e-05
 1.84710e-05
 1.78896e-05
 1.73114e-05
 1.67346e-05
 1.61586e-05
 1.55830e-05
 1.50068e-05
 1.44302e-05
)


51
(
 2.46354e-05
 4.13545e-05
 5.80986e-05
 6.57300e-05
 6.13484e-05
 5.66651e-05
 5.44621e-05
 5.47552e-05
 5.27019e-05
 5.07076e-05
 4.90885e-05
 4.74104e-05
 4.56845e-05
 4.42539e-05
 4.30932e-05
 4.17499e-05
 4.04724e-05
 3.92553e-05
 3.80933e-05
 3.69819e-05
 3.59166e-05
 3.48936e-05
 3.39107e-05
 3.29657e-05
 3.20530e-05
 3.11728e-05
 3.03212e-05
 2.94966e-05
 2.86966e-05
 2.79204e-05
 2.71638e-05
 2.64286e-05
 2.57108e-05
 2.50088e-05
 2.43223e-05
 2.36503e-05
 2.29904e-05
 2.23416e-05
 2.17027e-05
 2.10728e-05
 2.04505e-05
 1.98349e-05
 1.92248e-05
 1.86191e-05
 1.80167e-05
 1.74175e-05
 1.68197e-05
 1.62226e-05
 1.56257e-05
 1.50282e-05
 1.44302e-05
)


51
(
 2.46354e-05
 4.21227e-05
 5.96712e-05
 6.76519e-05
 6.32024e-05
 5.81509e-05
 5.76438e-05
 5.46157e-05
 5.22585e-05
 5.05496e-05
 4.97855e-05
 4.80633e-05
 4.64426e-05
 4.49142e-05
 4.34681e-05
 4.16131e-05
 4.03428e-05
 3.91665e-05
 3.83716e-05
 3.72408e-05
 3.61577e-05
 3.51183e-05
 3.41201e-05
 3.31609e-05
 3.22350e-05
 3.13424e-05
 3.04792e-05
 2.96436e-05
 2.88333e-05
 2.80474e-05
 2.72815e-05
 2.65376e-05
 2.58115e-05
 2.51015e-05
 2.44076e-05
 2.37284e-05
 2.30616e-05
 2.24061e-05
 2.17609e-05
 2.11249e-05
 2.04969e-05
 1.98757e-05
 1.92602e-05
 1.86493e-05
 1.80419e-05
 1.74381e-05
 1.68358e-05
 1.62343e-05
 1.56334e-05
 1.50320e-05
 1.44302e-05
)


51
(
 2.46354e-05
 4.28918e-05
 6.10998e-05
 6.93893e-05
 6.49261e-05
 5.96299e-05
 5.76451e-05
 5.57708e-05
 5.36151e-05
 5.16032e-05
 4.97314e-05
 4.79911e-05
 4.60485e-05
 4.44856e-05
 4.33496e-05
 4.18738e-05
 4.06347e-05
 3.94050e-05
 3.82220e-05
 3.70888e-05
 3.60030e-05
 3.49614e-05
 3.39618e-05
 3.30020e-05
 3.20761e-05
 3.11841e-05
 3.03221e-05
 2.94882e-05
 2.86799e-05
 2.78963e-05
 2.71332e-05
 2.63924e-05
 2.56697e-05
 2.49634e-05
 2.42734e-05
 2.35986e-05
 2.29364e-05
 2.22860e-05
 2.16462e-05
 2.10159e-05
 2.03942e-05
 1.97799e-05
 1.91718e-05
 1.85689e-05
 1.79702e-05
 1.73761e-05
 1.67843e-05
 1.61941e-05
 1.56056e-05
 1.50177e-05
 1.44302e-05
)


51
(
 2.46354e-05
 4.36616e-05
 6.24328e-05
 7.09814e-05
 6.65580e-05
 6.11039e-05
 5.92953e-05
 5.66997e-05
 5.45082e-05
 5.24782e-05
 5.05792e-05
 4.84343e-05
 4.71310e-05
 4.55528e-05
 4.40613e-05
 4.22433e-05
 4.13065e-05
 4.00305e-05
 3.88144e-05
 3.76531e-05
 3.65419e-05
 3.54764e-05
 3.44541e-05
 3.34727e-05
 3.25260e-05
 3.16142e-05
 3.07330e-05
 2.98806e-05
 2.90545e-05
 2.82538e-05
 2.74740e-05
 2.67169e-05
 2.59783e-05
 2.52565e-05
 2.45512e-05
 2.38613e-05
 2.31842e-05
 2.25188e-05
 2.18640e-05
 2.12187e-05
 2.05817e-05
 1.99517e-05
 1.93277e-05
 1.87083e-05
 1.80925e-05
 1.74804e-05
 1.68698e-05
 1.62600e-05
 1.56506e-05
 1.50406e-05
 1.44302e-05
)


51
(
 2.46354e-05
 4.44313e-05
 6.38020e-05
 7.25527e-05
 6.82094e-05
 6.25786e-05
 6.10856e-05
 5.65454e-05
 5.61826e-05
 5.42210e-05
 5.22430e-05
 5.03882e-05
 4.83961e-05
 4.69920e-05
 4.40223e-05
 4.36980e-05
 4.25155e-05
 4.12415e-05
 3.99933e-05
 3.87901e-05
 3.76345e-05
 3.65249e-05
 3.54597e-05
 3.44369e-05
 3.34502e-05
 3.24999e-05
 3.15816e-05
 3.06933e-05
 2.98324e-05
 2.89980e-05
 2.81853e-05
 2.73963e-05
 2.66265e-05
 2.58738e-05
 2.51382e-05
 2.44181e-05
 2.37110e-05
 2.30156e-05
 2.23305e-05
 2.16545e-05
 2.09861e-05
 2.03239e-05
 1.96664e-05
 1.90124e-05
 1.83606e-05
 1.77100e-05
 1.70586e-05
 1.64063e-05
 1.57508e-05
 1.50918e-05
 1.44302e-05
)


51
(
 2.46354e-05
 4.51866e-05
 6.52049e-05
 7.41072e-05
 6.98802e-05
 6.40537e-05
 6.26829e-05
 5.91265e-05
 5.60863e-05
 5.29945e-05
 5.10997e-05
 4.96563e-05
 4.75417e-05
 4.61401e-05
 4.43946e-05
 4.31009e-05
 4.17128e-05
 4.03978e-05
 3.91480e-05
 3.79570e-05
 3.68193e-05
 3.57300e-05
 3.46862e-05
 3.36853e-05
 3.27208e-05
 3.17927e-05
 3.08966e-05
 3.00305e-05
 2.91916e-05
 2.83791e-05
 2.75884e-05
 2.68212e-05
 2.60732e-05
 2.53425e-05
 2.46290e-05
 2.39313e-05
 2.32470e-05
 2.25748e-05
 2.19137e-05
 2.12624e-05
 2.06197e-05
 1.99845e-05
 1.93555e-05
 1.87315e-05
 1.81115e-05
 1.74955e-05
 1.68812e-05
 1.62681e-05
 1.56557e-05
 1.50431e-05
 1.44302e-05
)


51
(
 2.46354e-05
 4.59390e-05
 6.66337e-05
 7.56448e-05
 7.15660e-05
 6.55292e-05
 6.36803e-05
 6.11115e-05
 5.86634e-05
 5.63761e-05
 5.22324e-05
 5.00555e-05
 4.80608e-05
 4.64144e-05
 4.48442e-05
 4.33658e-05
 4.19646e-05
 4.06345e-05
 3.93694e-05
 3.81636e-05
 3.70118e-05
 3.59093e-05
 3.48533e-05
 3.38411e-05
 3.28661e-05
 3.19282e-05
 3.10230e-05
 3.01484e-05
 2.93016e-05
 2.84817e-05
 2.76839e-05
 2.69102e-05
 2.61559e-05
 2.54193e-05
 2.47001e-05
 2.39970e-05
 2.33075e-05
 2.26303e-05
 2.19643e-05
 2.13084e-05
 2.06611e-05
 2.00215e-05
 1.93881e-05
 1.87599e-05
 1.81356e-05
 1.75155e-05
 1.68971e-05
 1.62799e-05
 1.56636e-05
 1.50470e-05
 1.44302e-05
)


51
(
 2.46354e-05
 4.66913e-05
 6.80809e-05
 7.71651e-05
 7.32623e-05
 6.70048e-05
 6.46615e-05
 6.20230e-05
 5.95101e-05
 5.71643e-05
 5.41561e-05
 5.20463e-05
 5.00726e-05
 4.82598e-05
 4.65736e-05
 4.49855e-05
 4.35057e-05
 4.21099e-05
 4.07851e-05
 3.95229e-05
 3.83172e-05
 3.71627e-05
 3.60565e-05
 3.49959e-05
 3.39740e-05
 3.29909e-05
 3.20420e-05
 3.11251e-05
 3.02374e-05
 2.93777e-05
 2.85412e-05
 2.77297e-05
 2.69385e-05
 2.61655e-05
 2.54105e-05
 2.46719e-05
 2.39470e-05
 2.32344e-05
 2.25326e-05
 2.18403e-05
 2.11560e-05
 2.04780e-05
 1.98049e-05
 1.91352e-05
 1.84676e-05
 1.78007e-05
 1.71326e-05
 1.64632e-05
 1.57895e-05
 1.51115e-05
 1.44302e-05
)


51
(
 2.46354e-05
 4.74436e-05
 6.95388e-05
 7.86677e-05
 7.49648e-05
 6.84803e-05
 6.56401e-05
 6.29282e-05
 6.03495e-05
 5.79449e-05
 5.57065e-05
 5.36270e-05
 5.16811e-05
 4.98561e-05
 4.81401e-05
 4.65221e-05
 4.49999e-05
 4.35561e-05
 4.21802e-05
 4.08663e-05
 3.96093e-05
 3.84045e-05
 3.72494e-05
 3.61413e-05
 3.50734e-05
 3.40458e-05
 3.30539e-05
 3.20952e-05
 3.11669e-05
 3.02680e-05
 2.93931e-05
 2.85443e-05
 2.77165e-05
 2.69076e-05
 2.61171e-05
 2.53434e-05
 2.45835e-05
 2.38357e-05
 2.30986e-05
 2.23703e-05
 2.16492e-05
 2.09333e-05
 2.02209e-05
 1.95100e-05
 1.87993e-05
 1.80860e-05
 1.73684e-05
 1.66468e-05
 1.59158e-05
 1.51762e-05
 1.44302e-05
)


51
(
 2.46354e-05
 4.81709e-05
 7.09998e-05
 8.01523e-05
 7.66692e-05
 6.99553e-05
 6.65962e-05
 6.38144e-05
 6.11710e-05
 5.87081e-05
 5.64173e-05
 5.42908e-05
 5.23024e-05
 5.04388e-05
 4.86875e-05
 4.70373e-05
 4.54815e-05
 4.40117e-05
 4.26126e-05
 4.12766e-05
 3.99986e-05
 3.87738e-05
 3.75998e-05
 3.64739e-05
 3.53890e-05
 3.43453e-05
 3.33380e-05
 3.23648e-05
 3.14227e-05
 3.05106e-05
 2.96231e-05
 2.87622e-05
 2.79228e-05
 2.71027e-05
 2.63014e-05
 2.55172e-05
 2.47470e-05
 2.39892e-05
 2.32421e-05
 2.25039e-05
 2.17729e-05
 2.10469e-05
 2.03242e-05
 1.96028e-05
 1.88813e-05
 1.81564e-05
 1.74265e-05
 1.66921e-05
 1.59469e-05
 1.51921e-05
 1.44302e-05
)


51
(
 2.46354e-05
 4.88917e-05
 7.24563e-05
 8.16187e-05
 7.83711e-05
 7.14298e-05
 6.75523e-05
 6.47006e-05
 6.19918e-05
 5.94704e-05
 5.71271e-05
 5.49536e-05
 5.29226e-05
 5.10204e-05
 4.92340e-05
 4.75517e-05
 4.59625e-05
 4.44664e-05
 4.30441e-05
 4.16860e-05
 4.03870e-05
 3.91424e-05
 3.79495e-05
 3.68057e-05
 3.57038e-05
 3.46440e-05
 3.36214e-05
 3.26338e-05
 3.16778e-05
 3.07526e-05
 2.98525e-05
 2.89796e-05
 2.81286e-05
 2.72974e-05
 2.64853e-05
 2.56906e-05
 2.49102e-05
 2.41423e-05
 2.33853e-05
 2.26372e-05
 2.18962e-05
 2.11603e-05
 2.04273e-05
 1.96954e-05
 1.89630e-05
 1.82265e-05
 1.74844e-05
 1.67372e-05
 1.59780e-05
 1.52080e-05
 1.44302e-05
)


51
(
 2.46354e-05
 4.96124e-05
 7.39007e-05
 8.30664e-05
 8.00661e-05
 7.29034e-05
 6.84941e-05
 6.55697e-05
 6.27962e-05
 6.02165e-05
 5.78209e-05
 5.56007e-05
 5.35274e-05
 5.15869e-05
 4.97657e-05
 4.80516e-05
 4.64332e-05
 4.49057e-05
 4.34609e-05
 4.20816e-05
 4.07623e-05
 3.94983e-05
 3.82871e-05
 3.71259e-05
 3.60075e-05
 3.49320e-05
 3.38946e-05
 3.28928e-05
 3.19234e-05
 3.09853e-05
 3.00730e-05
 2.91884e-05
 2.83263e-05
 2.74842e-05
 2.66617e-05
 2.58569e-05
 2.50666e-05
 2.42891e-05
 2.35225e-05
 2.27650e-05
 2.20145e-05
 2.12690e-05
 2.05263e-05
 1.97843e-05
 1.90416e-05
 1.82941e-05
 1.75403e-05
 1.67807e-05
 1.60080e-05
 1.52235e-05
 1.44302e-05
)


51
(
 2.46354e-05
 5.03056e-05
 7.53254e-05
 8.44953e-05
 8.17499e-05
 7.43759e-05
 6.94297e-05
 6.64334e-05
 6.35946e-05
 6.09566e-05
 5.85087e-05
 5.62417e-05
 5.41263e-05
 5.21476e-05
 5.02917e-05
 4.85459e-05
 4.68985e-05
 4.53411e-05
 4.38718e-05
 4.24717e-05
 4.11324e-05
 3.98494e-05
 3.86200e-05
 3.74416e-05
 3.63068e-05
 3.52159e-05
 3.41637e-05
 3.31479e-05
 3.21652e-05
 3.12145e-05
 3.02900e-05
 2.93940e-05
 2.85207e-05
 2.76680e-05
 2.68352e-05
 2.60204e-05
 2.52204e-05
 2.44334e-05
 2.36574e-05
 2.28906e-05
 2.21308e-05
 2.13759e-05
 2.06236e-05
 1.98719e-05
 1.91190e-05
 1.83607e-05
 1.75954e-05
 1.68237e-05
 1.60377e-05
 1.52387e-05
 1.44302e-05
)


51
(
 2.46354e-05
 5.09966e-05
 7.67227e-05
 8.59048e-05
 8.34180e-05
 7.58471e-05
 7.03569e-05
 6.72884e-05
 6.43843e-05
 6.16879e-05
 5.91878e-05
 5.68742e-05
 5.47167e-05
 5.27000e-05
 5.08095e-05
 4.90322e-05
 4.73560e-05
 4.57709e-05
 4.42747e-05
 4.28539e-05
 4.14952e-05
 4.01935e-05
 3.89463e-05
 3.77510e-05
 3.66001e-05
 3.54939e-05
 3.44272e-05
 3.33976e-05
 3.24018e-05
 3.14386e-05
 3.05022e-05
 2.95948e-05
 2.87107e-05
 2.78474e-05
 2.70045e-05
 2.61801e-05
 2.53705e-05
 2.45742e-05
 2.37891e-05
 2.30132e-05
 2.22443e-05
 2.14803e-05
 2.07187e-05
 1.99574e-05
 1.91946e-05
 1.84257e-05
 1.76492e-05
 1.68658e-05
 1.60668e-05
 1.52536e-05
 1.44302e-05
)


51
(
 2.46354e-05
 5.16877e-05
 7.80851e-05
 8.72948e-05
 8.50662e-05
 7.73168e-05
 7.12768e-05
 6.81372e-05
 6.51682e-05
 6.24135e-05
 5.98613e-05
 5.75012e-05
 5.53017e-05
 5.32470e-05
 5.13221e-05
 4.95134e-05
 4.78085e-05
 4.61971e-05
 4.46725e-05
 4.32309e-05
 4.18530e-05
 4.05329e-05
 3.92682e-05
 3.80562e-05
 3.68893e-05
 3.57680e-05
 3.46869e-05
 3.36437e-05
 3.26349e-05
 3.16594e-05
 3.07112e-05
 2.97925e-05
 2.88977e-05
 2.80241e-05
 2.71712e-05
 2.63371e-05
 2.55182e-05
 2.47127e-05
 2.39186e-05
 2.31338e-05
 2.23560e-05
 2.15830e-05
 2.08122e-05
 2.00415e-05
 1.92690e-05
 1.84899e-05
 1.77024e-05
 1.69074e-05
 1.60955e-05
 1.52684e-05
 1.44302e-05
)


51
(
 2.46354e-05
 5.23470e-05
 7.94049e-05
 8.86649e-05
 8.66901e-05
 7.87847e-05
 7.21905e-05
 6.89780e-05
 6.59434e-05
 6.31304e-05
 6.05260e-05
 5.81194e-05
 5.58781e-05
 5.37856e-05
 5.18264e-05
 4.99865e-05
 4.82530e-05
 4.66154e-05
 4.50646e-05
 4.35997e-05
 4.22032e-05
 4.08651e-05
 3.95832e-05
 3.83547e-05
 3.71723e-05
 3.60361e-05
 3.49409e-05
 3.38842e-05
 3.28626e-05
 3.18750e-05
 3.09152e-05
 2.99855e-05
 2.90801e-05
 2.81963e-05
 2.73337e-05
 2.64902e-05
 2.56621e-05
 2.48476e-05
 2.40447e-05
 2.32512e-05
 2.24647e-05
 2.16830e-05
 2.09034e-05
 2.01236e-05
 1.93417e-05
 1.85524e-05
 1.77543e-05
 1.69480e-05
 1.61236e-05
 1.52829e-05
 1.44302e-05
)


51
(
 2.46354e-05
 5.30047e-05
 8.06746e-05
 9.00148e-05
 8.82852e-05
 8.02506e-05
 7.31685e-05
 6.98966e-05
 6.67950e-05
 6.39192e-05
 6.12589e-05
 5.87976e-05
 5.65100e-05
 5.43770e-05
 5.23813e-05
 5.05076e-05
 4.87427e-05
 4.70757e-05
 4.54966e-05
 4.40022e-05
 4.25850e-05
 4.12286e-05
 3.99283e-05
 3.86811e-05
 3.74820e-05
 3.63290e-05
 3.52183e-05
 3.41468e-05
 3.31116e-05
 3.21103e-05
 3.11387e-05
 3.01960e-05
 2.92789e-05
 2.83846e-05
 2.75112e-05
 2.66570e-05
 2.58189e-05
 2.49944e-05
 2.41818e-05
 2.33790e-05
 2.25831e-05
 2.17919e-05
 2.10029e-05
 2.02131e-05
 1.94201e-05
 1.86213e-05
 1.78111e-05
 1.69905e-05
 1.61552e-05
 1.52975e-05
 1.44302e-05
)


51
(
 2.46354e-05
 5.36623e-05
 8.18864e-05
 9.13441e-05
 8.98472e-05
 8.17142e-05
 7.41753e-05
 7.08017e-05
 6.76226e-05
 6.46825e-05
 6.19667e-05
 5.94528e-05
 5.71202e-05
 5.49477e-05
 5.29162e-05
 5.10096e-05
 4.92143e-05
 4.75187e-05
 4.59132e-05
 4.43899e-05
 4.29523e-05
 4.15780e-05
 4.02600e-05
 3.89949e-05
 3.77796e-05
 3.66107e-05
 3.54849e-05
 3.43992e-05
 3.33507e-05
 3.23363e-05
 3.13531e-05
 3.03981e-05
 2.94698e-05
 2.85652e-05
 2.76815e-05
 2.68170e-05
 2.59694e-05
 2.51353e-05
 2.43133e-05
 2.35015e-05
 2.26966e-05
 2.18964e-05
 2.10983e-05
 2.02989e-05
 1.94955e-05
 1.86873e-05
 1.78657e-05
 1.70317e-05
 1.61854e-05
 1.53117e-05
 1.44302e-05
)


51
(
 2.46354e-05
 5.42928e-05
 8.30328e-05
 9.26526e-05
 9.13718e-05
 8.31754e-05
 7.50738e-05
 7.16252e-05
 6.83797e-05
 6.53808e-05
 6.26127e-05
 6.00523e-05
 5.76780e-05
 5.54679e-05
 5.34025e-05
 5.14651e-05
 4.96416e-05
 4.79203e-05
 4.62910e-05
 4.47453e-05
 4.32849e-05
 4.18937e-05
 4.05594e-05
 3.92788e-05
 3.80485e-05
 3.68653e-05
 3.57259e-05
 3.46272e-05
 3.35664e-05
 3.25403e-05
 3.15461e-05
 3.05804e-05
 2.96419e-05
 2.87277e-05
 2.78345e-05
 2.69611e-05
 2.61047e-05
 2.52621e-05
 2.44319e-05
 2.36119e-05
 2.27988e-05
 2.19905e-05
 2.11840e-05
 2.03761e-05
 1.95638e-05
 1.87464e-05
 1.79148e-05
 1.70700e-05
 1.62122e-05
 1.53254e-05
 1.44302e-05
)


51
(
 2.46354e-05
 5.49126e-05
 8.41062e-05
 9.39399e-05
 9.28546e-05
 8.46339e-05
 7.59676e-05
 7.24433e-05
 6.91310e-05
 6.60733e-05
 6.32530e-05
 6.06459e-05
 5.82300e-05
 5.59825e-05
 5.38832e-05
 5.19151e-05
 5.00636e-05
 4.83167e-05
 4.66638e-05
 4.50960e-05
 4.36121e-05
 4.22043e-05
 4.08541e-05
 3.95581e-05
 3.83131e-05
 3.71158e-05
 3.59630e-05
 3.48516e-05
 3.37786e-05
 3.27410e-05
 3.17357e-05
 3.07595e-05
 2.98110e-05
 2.88871e-05
 2.79848e-05
 2.71025e-05
 2.62375e-05
 2.53866e-05
 2.45481e-05
 2.37201e-05
 2.28990e-05
 2.20827e-05
 2.12681e-05
 2.04518e-05
 1.96309e-05
 1.88045e-05
 1.79630e-05
 1.71076e-05
 1.62385e-05
 1.53388e-05
 1.44302e-05
)


51
(
 2.46354e-05
 5.55179e-05
 8.50989e-05
 9.52057e-05
 9.42913e-05
 8.60894e-05
 7.68564e-05
 7.32556e-05
 6.98760e-05
 6.67592e-05
 6.38866e-05
 6.12330e-05
 5.87755e-05
 5.64907e-05
 5.43577e-05
 5.23590e-05
 5.04797e-05
 4.87072e-05
 4.70310e-05
 4.54416e-05
 4.39335e-05
 4.25094e-05
 4.11436e-05
 3.98325e-05
 3.85730e-05
 3.73618e-05
 3.61958e-05
 3.50718e-05
 3.39868e-05
 3.29378e-05
 3.19216e-05
 3.09351e-05
 2.99767e-05
 2.90434e-05
 2.81320e-05
 2.72410e-05
 2.63676e-05
 2.55084e-05
 2.46619e-05
 2.38260e-05
 2.29971e-05
 2.21729e-05
 2.13504e-05
 2.05259e-05
 1.96966e-05
 1.88613e-05
 1.80102e-05
 1.71445e-05
 1.62644e-05
 1.53519e-05
 1.44302e-05
)


51
(
 2.46354e-05
 5.60243e-05
 8.60034e-05
 9.64496e-05
 9.56774e-05
 8.75417e-05
 7.77401e-05
 7.40607e-05
 7.06134e-05
 6.74373e-05
 6.45124e-05
 6.18124e-05
 5.93135e-05
 5.69915e-05
 5.48250e-05
 5.27959e-05
 5.08889e-05
 4.90912e-05
 4.73917e-05
 4.57809e-05
 4.42515e-05
 4.28080e-05
 4.14270e-05