/*--------------------------------*- C++ -*----------------------------------*\
| =========                 |                                                 |
| \      /  F ield          | OpenFOAM: The Open Source CFD Toolbox           |
|  \    /   O peration      | Version:  7                                     |
|   \  /    A nd            | Web:      http://www.OpenFOAM.com               |
|    \/     M anipulation   |                                                 |
\*---------------------------------------------------------------------------*/
FoamFile 
{   version     2.0;
    format      ascii;
    class       dictionary;
    location    "constant";
    object      LDMtable;
}
// * * * * * * * * * * * * * * * * * * * * * * * * * * * * * * * * * * * * * //

CH2O_table
51
(

51
(
 1.00000e-60
 2.20163e-31
 6.90009e-17
 7.66730e-20
 1.13978e-13
 5.36326e-10
 1.19923e-30
 1.39350e-30
 1.67847e-30
 2.06921e-30
 2.49811e-30
 2.86439e-30
 2.91040e-30
 2.86442e-30
 2.76812e-30
 2.62882e-30
 2.47092e-30
 2.31211e-30
 2.18970e-30
 2.09230e-30
 2.01127e-30
 1.93690e-30
 1.85985e-30
 1.77176e-30
 1.69331e-30
 1.62305e-30
 1.56372e-30
 1.50346e-30
 1.44105e-30
 1.38685e-30
 1.34739e-30
 1.31424e-30
 1.26978e-30
 1.21558e-30
 1.15652e-30
 1.09234e-30
 1.02260e-30
 9.49597e-31
 8.73928e-31
 7.98152e-31
 7.22505e-31
 6.48213e-31
 5.75498e-31
 5.03257e-31
 4.31258e-31
 3.59416e-31
 2.87778e-31
 2.16230e-31
 1.44666e-31
 7.28712e-32
 1.00000e-60
)


51
(
 1.00000e-60
 8.92595e-05
 9.04979e-07
 1.19338e-06
 1.05702e-06
 2.12312e-06
 2.69762e-04
 2.65050e-04
 2.59623e-04
 2.54543e-04
 2.50652e-04
 2.48350e-04
 2.46003e-04
 2.41337e-04
 3.36320e-05
 3.27085e-05
 3.17829e-05
 3.08555e-05
 2.99267e-05
 2.89967e-05
 2.80658e-05
 2.71341e-05
 2.62017e-05
 2.52688e-05
 2.43353e-05
 2.34015e-05
 2.24672e-05
 2.15327e-05
 2.05979e-05
 1.96629e-05
 1.87277e-05
 1.77923e-05
 1.68567e-05
 1.59210e-05
 1.49851e-05
 1.40491e-05
 1.31130e-05
 1.21768e-05
 1.12405e-05
 1.03041e-05
 9.36758e-06
 8.43104e-06
 7.49443e-06
 6.55777e-06
 5.62106e-06
 4.68429e-06
 3.74749e-06
 2.81066e-06
 1.87379e-06
 9.36904e-07
 1.00000e-60
)


51
(
 1.00000e-60
 1.78519e-04
 9.23771e-06
 1.21817e-05
 1.07736e-05
 1.26795e-05
 5.39525e-04
 5.30101e-04
 5.19245e-04
 5.09087e-04
 5.01304e-04
 4.96700e-04
 4.92006e-04
 4.82675e-04
 6.72639e-05
 6.54170e-05
 6.35658e-05
 6.17110e-05
 5.98534e-05
 5.79934e-05
 5.61316e-05
 5.42682e-05
 5.24034e-05
 5.05375e-05
 4.86706e-05
 4.68029e-05
 4.49345e-05
 4.30655e-05
 4.11959e-05
 3.93258e-05
 3.74554e-05
 3.55846e-05
 3.37134e-05
 3.18419e-05
 2.99702e-05
 2.80982e-05
 2.62260e-05
 2.43535e-05
 2.24809e-05
 2.06081e-05
 1.87352e-05
 1.68621e-05
 1.49889e-05
 1.31155e-05
 1.12421e-05
 9.36859e-06
 7.49498e-06
 5.62132e-06
 3.74759e-06
 1.87381e-06
 1.00000e-60
)


51
(
 1.00000e-60
 2.67778e-04
 2.56544e-05
 3.38304e-05
 2.99141e-05
 3.20254e-05
 8.09287e-04
 7.95151e-04
 7.78868e-04
 7.63630e-04
 7.51956e-04
 7.45050e-04
 7.38009e-04
 7.24012e-04
 1.00896e-04
 9.81255e-05
 9.53486e-05
 9.25665e-05
 8.97800e-05
 8.69902e-05
 8.41974e-05
 8.14023e-05
 7.86052e-05
 7.58063e-05
 7.30059e-05
 7.02044e-05
 6.74017e-05
 6.45982e-05
 6.17938e-05
 5.89888e-05
 5.61831e-05
 5.33768e-05
 5.05701e-05
 4.77629e-05
 4.49553e-05
 4.21473e-05
 3.93389e-05
 3.65303e-05
 3.37214e-05
 3.09122e-05
 2.81028e-05
 2.52931e-05
 2.24833e-05
 1.96733e-05
 1.68632e-05
 1.40529e-05
 1.12425e-05
 8.43198e-06
 5.62138e-06
 2.81071e-06
 1.00000e-60
)


51
(
 1.00000e-60
 3.57038e-04
 4.93766e-05
 6.51127e-05
 5.75709e-05
 5.93084e-05
 1.07905e-03
 1.06020e-03
 1.03849e-03
 1.01817e-03
 1.00261e-03
 9.93400e-04
 9.84012e-04
 9.65349e-04
 1.34528e-04
 1.30834e-04
 1.27132e-04
 1.23422e-04
 1.19707e-04
 1.15987e-04
 1.12263e-04
 1.08536e-04
 1.04807e-04
 1.01075e-04
 9.73413e-05
 9.36058e-05
 8.98690e-05
 8.61309e-05
 8.23918e-05
 7.86517e-05
 7.49108e-05
 7.11691e-05
 6.74268e-05
 6.36839e-05
 5.99404e-05
 5.61964e-05
 5.24519e-05
 4.87071e-05
 4.49618e-05
 4.12162e-05
 3.74703e-05
 3.37242e-05
 2.99777e-05
 2.62311e-05
 2.24842e-05
 1.87372e-05
 1.49900e-05
 1.12426e-05
 7.49517e-06
 3.74762e-06
 1.00000e-60
)


51
(
 1.00000e-60
 4.23312e-04
 7.96257e-05
 1.05002e-04
 9.28364e-05
 9.36758e-05
 1.34881e-03
 1.32525e-03
 1.29811e-03
 1.27272e-03
 1.25326e-03
 1.24175e-03
 1.23002e-03
 1.20669e-03
 1.68160e-04
 1.63543e-04
 1.58914e-04
 1.54277e-04
 1.49633e-04
 1.44984e-04
 1.40329e-04
 1.35671e-04
 1.31009e-04
 1.26344e-04
 1.21677e-04
 1.17007e-04
 1.12336e-04
 1.07664e-04
 1.02990e-04
 9.83146e-05
 9.36385e-05
 8.89614e-05
 8.42835e-05
 7.96048e-05
 7.49255e-05
 7.02455e-05
 6.55649e-05
 6.08838e-05
 5.62023e-05
 5.15203e-05
 4.68379e-05
 4.21552e-05
 3.74722e-05
 3.27889e-05
 2.81053e-05
 2.34215e-05
 1.87375e-05
 1.40533e-05
 9.36896e-06
 4.68452e-06
 1.00000e-60
)


51
(
 1.00000e-60
 4.56755e-04
 1.15623e-04
 1.52472e-04
 1.34803e-04
 1.34275e-04
 1.61857e-03
 1.59030e-03
 1.55774e-03
 1.52726e-03
 1.50391e-03
 1.49010e-03
 1.47602e-03
 1.44802e-03
 2.01792e-04
 1.96251e-04
 1.90697e-04
 1.85133e-04
 1.79560e-04
 1.73980e-04
 1.68395e-04
 1.62805e-04
 1.57210e-04
 1.51613e-04
 1.46012e-04
 1.40409e-04
 1.34803e-04
 1.29196e-04
 1.23588e-04
 1.17978e-04
 1.12366e-04
 1.06754e-04
 1.01140e-04
 9.55258e-05
 8.99106e-05
 8.42946e-05
 7.86779e-05
 7.30606e-05
 6.74427e-05
 6.18244e-05
 5.62055e-05
 5.05862e-05
 4.49666e-05
 3.93466e-05
 3.37264e-05
 2.81058e-05
 2.24849e-05
 1.68640e-05
 1.12428e-05
 5.62142e-06
 1.00000e-60
)


51
(
 1.00000e-60
 4.83341e-04
 1.56591e-04
 2.06495e-04
 1.82563e-04
 1.80254e-04
 1.88834e-03
 1.85535e-03
 1.81736e-03
 1.78180e-03
 1.75456e-03
 1.73845e-03
 1.72202e-03
 1.68936e-03
 2.35424e-04
 2.28960e-04
 2.22480e-04
 2.15988e-04
 2.09487e-04
 2.02977e-04
 1.96461e-04
 1.89939e-04
 1.83412e-04
 1.76881e-04
 1.70347e-04
 1.63810e-04
 1.57271e-04
 1.50729e-04
 1.44186e-04
 1.37640e-04
 1.31094e-04
 1.24546e-04
 1.17997e-04
 1.11447e-04
 1.04896e-04
 9.83437e-05
 9.17909e-05
 8.52374e-05
 7.86832e-05
 7.21284e-05
 6.55731e-05
 5.90173e-05
 5.24610e-05
 4.59044e-05
 3.93474e-05
 3.27901e-05
 2.62324e-05
 1.96746e-05
 1.31165e-05
 6.55833e-06
 1.00000e-60
)


51
(
 1.00000e-60
 5.07475e-04
 2.01749e-04
 2.66046e-04
 2.35210e-04
 2.30760e-04
 2.15810e-03
 2.12040e-03
 2.07698e-03
 2.03635e-03
 2.00522e-03
 1.98680e-03
 1.96802e-03
 1.93070e-03
 2.69056e-04
 2.61668e-04
 2.54263e-04
 2.46844e-04
 2.39413e-04
 2.31974e-04
 2.24526e-04
 2.17073e-04
 2.09614e-04
 2.02150e-04
 1.94683e-04
 1.87212e-04
 1.79738e-04
 1.72262e-04
 1.64784e-04
 1.57303e-04
 1.49822e-04
 1.42338e-04
 1.34854e-04
 1.27368e-04
 1.19881e-04
 1.12393e-04
 1.04904e-04
 9.74141e-05
 8.99236e-05
 8.24325e-05
 7.49407e-05
 6.74483e-05
 5.99555e-05
 5.24622e-05
 4.49685e-05
 3.74743e-05
 2.99799e-05
 2.24853e-05
 1.49903e-05
 7.49523e-06
 1.00000e-60
)


51
(
 1.00000e-60
 5.30625e-04
 2.50321e-04
 3.30097e-04
 2.91835e-04
 2.84940e-04
 2.40938e-03
 2.38545e-03
 2.33660e-03
 2.29089e-03
 2.25587e-03
 2.23515e-03
 2.21403e-03
 2.17204e-03
 3.02688e-04
 2.94377e-04
 2.86046e-04
 2.77699e-04
 2.69340e-04
 2.60971e-04
 2.52592e-04
 2.44207e-04
 2.35815e-04
 2.27419e-04
 2.19018e-04
 2.10613e-04
 2.02205e-04
 1.93795e-04
 1.85382e-04
 1.76966e-04
 1.68549e-04
 1.60131e-04
 1.51710e-04
 1.43289e-04
 1.34866e-04
 1.26442e-04
 1.18017e-04
 1.09591e-04
 1.01164e-04
 9.27365e-05
 8.43083e-05
 7.58794e-05
 6.74499e-05
 5.90199e-05
 5.05895e-05
 4.21586e-05
 3.37274e-05
 2.52959e-05
 1.68641e-05
 8.43214e-06
 1.00000e-60
)


51
(
 1.00000e-60
 5.52949e-04
 3.01527e-04
 3.97622e-04
 3.51530e-04
 3.41941e-04
 2.54936e-03
 2.65050e-03
 2.59623e-03
 2.54543e-03
 2.50652e-03
 2.48350e-03
 2.46003e-03
 2.41337e-03
 3.36320e-04
 3.27085e-04
 3.17829e-04
 3.08555e-04
 2.99267e-04
 2.89967e-04
 2.80658e-04
 2.71341e-04
 2.62017e-04
 2.52688e-04
 2.43353e-04
 2.34015e-04
 2.24672e-04
 2.15327e-04
 2.05979e-04
 1.96629e-04
 1.87277e-04
 1.77923e-04
 1.68567e-04
 1.59210e-04
 1.49851e-04
 1.40491e-04
 1.31130e-04
 1.21768e-04
 1.12405e-04
 1.03041e-04
 9.36758e-05
 8.43104e-05
 7.49443e-05
 6.55777e-05
 5.62106e-05
 4.68429e-05
 3.74749e-05
 2.81066e-05
 1.87379e-05
 9.36904e-06
 1.00000e-60
)


51
(
 1.00000e-60
 5.73493e-04
 3.54589e-04
 4.67595e-04
 4.13389e-04
 4.00912e-04
 2.65824e-03
 2.85765e-03
 2.85585e-03
 2.79998e-03
 2.75717e-03
 2.73185e-03
 2.70603e-03
 2.65471e-03
 3.69952e-04
 3.59794e-04
 3.49612e-04
 3.39410e-04
 3.29193e-04
 3.18964e-04
 3.08724e-04
 2.98475e-04
 2.88219e-04
 2.77956e-04
 2.67688e-04
 2.57416e-04
 2.47140e-04
 2.36860e-04
 2.26577e-04
 2.16292e-04
 2.06005e-04
 1.95715e-04
 1.85424e-04
 1.75131e-04
 1.64836e-04
 1.54540e-04
 1.44243e-04
 1.33944e-04
 1.23645e-04
 1.13345e-04
 1.03043e-04
 9.27414e-05
 8.24388e-05
 7.21355e-05
 6.18317e-05
 5.15272e-05
 4.12224e-05
 3.09173e-05
 2.06117e-05
 1.03059e-05
 1.00000e-60
)


51
(
 1.00000e-60
 5.91676e-04
 4.08728e-04
 5.38988e-04
 4.76504e-04
 4.61000e-04
 2.74923e-03
 2.99098e-03
 3.11547e-03
 3.05452e-03
 3.00782e-03
 2.98020e-03
 2.95204e-03
 2.89605e-03
 4.03584e-04
 3.92502e-04
 3.81395e-04
 3.70266e-04
 3.59120e-04
 3.47961e-04
 3.36790e-04
 3.25609e-04
 3.14421e-04
 3.03225e-04
 2.92024e-04
 2.80817e-04
 2.69607e-04
 2.58393e-04
 2.47175e-04
 2.35955e-04
 2.24732e-04
 2.13507e-04
 2.02280e-04
 1.91052e-04
 1.79821e-04
 1.68589e-04
 1.57356e-04
 1.46121e-04
 1.34885e-04
 1.23649e-04
 1.12411e-04
 1.01172e-04
 8.99332e-05
 7.86933e-05
 6.74527e-05
 5.62115e-05
 4.49699e-05
 3.37279e-05
 2.24855e-05
 1.12428e-05
 1.00000e-60
)


51
(
 1.00000e-60
 6.08677e-04
 4.63165e-04
 6.10774e-04
 5.39967e-04
 5.21352e-04
 2.83336e-03
 3.09743e-03
 3.29254e-03
 3.30906e-03
 3.25848e-03
 3.22855e-03
 3.19804e-03
 3.13739e-03
 4.37215e-04
 4.25211e-04
 4.13177e-04
 4.01121e-04
 3.89047e-04
 3.76957e-04
 3.64856e-04
 3.52743e-04
 3.40622e-04
 3.28494e-04
 3.16359e-04
 3.04219e-04
 2.92074e-04
 2.79925e-04
 2.67773e-04
 2.55618e-04
 2.43460e-04
 2.31300e-04
 2.19137e-04
 2.06973e-04
 1.94806e-04
 1.82638e-04
 1.70469e-04
 1.58298e-04
 1.46126e-04
 1.33953e-04
 1.21779e-04
 1.09604e-04
 9.74276e-05
 8.52510e-05
 7.30738e-05
 6.08958e-05
 4.87174e-05
 3.65386e-05
 2.43593e-05
 1.21798e-05
 1.00000e-60
)


51
(
 1.00000e-60
 6.21405e-04
 5.17123e-04
 6.81929e-04
 6.02870e-04
 5.81115e-04
 2.91184e-03
 3.19131e-03
 3.42318e-03
 3.56361e-03
 3.50913e-03
 3.47690e-03
 3.44404e-03
 3.37872e-03
 4.70847e-04
 4.57919e-04
 4.44960e-04
 4.31977e-04
 4.18974e-04
 4.05954e-04
 3.92921e-04
 3.79878e-04
 3.66824e-04
 3.53763e-04
 3.40694e-04
 3.27620e-04
 3.14541e-04
 3.01458e-04
 2.88371e-04
 2.75281e-04
 2.62188e-04
 2.49092e-04
 2.35994e-04
 2.22894e-04
 2.09791e-04
 1.96687e-04
 1.83582e-04
 1.70475e-04
 1.57366e-04
 1.44257e-04
 1.31146e-04
 1.18035e-04
 1.04922e-04
 9.18088e-05
 7.86948e-05
 6.55801e-05
 5.24649e-05
 3.93493e-05
 2.62331e-05
 1.31167e-05
 1.00000e-60
)


51
(
 1.00000e-60
 6.33020e-04
 5.69823e-04
 7.51424e-04
 6.64307e-04
 6.39438e-04
 2.98843e-03
 3.27667e-03
 3.53161e-03
 3.72476e-03
 3.75978e-03
 3.72525e-03
 3.69005e-03
 3.62006e-03
 5.04479e-04
 4.90628e-04
 4.76743e-04
 4.62832e-04
 4.48900e-04
 4.34951e-04
 4.20987e-04
 4.07012e-04
 3.93026e-04
 3.79031e-04
 3.65030e-04
 3.51022e-04
 3.37009e-04
 3.22991e-04
 3.08969e-04
 2.94944e-04
 2.80915e-04
 2.66884e-04
 2.52850e-04
 2.38815e-04
 2.24776e-04
 2.10736e-04
 1.96695e-04
 1.82651e-04
 1.68607e-04
 1.54561e-04
 1.40514e-04
 1.26466e-04
 1.12416e-04
 9.83666e-05
 8.43159e-05
 7.02644e-05
 5.62124e-05
 4.21599e-05
 2.81069e-05
 1.40536e-05
 1.00000e-60
)


51
(
 1.00000e-60
 6.42804e-04
 6.20486e-04
 8.18233e-04
 7.23369e-04
 6.95467e-04
 3.06502e-03
 3.36076e-03
 3.63224e-03
 3.85773e-03
 4.01043e-03
 3.97360e-03
 3.93605e-03
 3.86140e-03
 5.38111e-04
 5.23336e-04
 5.08526e-04
 4.93688e-04
 4.78827e-04
 4.63948e-04
 4.49053e-04
 4.34146e-04
 4.19228e-04
 4.04300e-04
 3.89365e-04
 3.74423e-04
 3.59476e-04
 3.44524e-04
 3.29567e-04
 3.14607e-04
 2.99643e-04
 2.84676e-04
 2.69707e-04
 2.54735e-04
 2.39762e-04
 2.24786e-04
 2.09808e-04
 1.94828e-04
 1.79847e-04
 1.64865e-04
 1.49881e-04
 1.34897e-04
 1.19911e-04
 1.04924e-04
 8.99370e-05
 7.49487e-05
 5.99598e-05
 4.49706e-05
 2.99807e-05
 1.49905e-05
 1.00000e-60
)


51
(
 1.00000e-60
 6.48716e-04
 6.68334e-04
 8.81329e-04
 7.79149e-04
 7.48350e-04
 3.14161e-03
 3.44135e-03
 3.72167e-03
 3.97234e-03
 4.16732e-03
 4.22195e-03
 4.18205e-03
 4.10274e-03
 5.71743e-04
 5.56045e-04
 5.40309e-04
 5.24543e-04
 5.08754e-04
 4.92944e-04
 4.77119e-04
 4.61280e-04
 4.45429e-04
 4.29569e-04
 4.13700e-04
 3.97825e-04
 3.81943e-04
 3.66056e-04
 3.50165e-04
 3.34270e-04
 3.18371e-04
 3.02469e-04
 2.86564e-04
 2.70656e-04
 2.54747e-04
 2.38835e-04
 2.22921e-04
 2.07005e-04
 1.91088e-04
 1.75169e-04
 1.59249e-04
 1.43328e-04
 1.27405e-04
 1.11482e-04
 9.55580e-05
 7.96330e-05
 6.37073e-05
 4.77812e-05
 3.18545e-05
 1.59274e-05
 1.00000e-60
)


51
(
 1.00000e-60
 6.51451e-04
 7.12588e-04
 9.39687e-04
 8.30739e-04
 7.97235e-04
 3.21448e-03
 3.52086e-03
 3.81111e-03
 4.08076e-03
 4.30464e-03
 4.47030e-03
 4.42805e-03
 4.34407e-03
 6.05375e-04
 5.88753e-04
 5.72092e-04
 5.55399e-04
 5.38680e-04
 5.21941e-04
 5.05185e-04
 4.88414e-04
 4.71631e-04
 4.54838e-04
 4.38036e-04
 4.21226e-04
 4.04410e-04
 3.87589e-04
 3.70763e-04
 3.53933e-04
 3.37099e-04
 3.20261e-04
 3.03421e-04
 2.86577e-04
 2.69732e-04
 2.52884e-04
 2.36034e-04
 2.19182e-04
 2.02328e-04
 1.85473e-04
 1.68617e-04
 1.51759e-04
 1.34900e-04
 1.18040e-04
 1.01179e-04
 8.43173e-05
 6.74548e-05
 5.05919e-05
 3.37283e-05
 1.68643e-05
 1.00000e-60
)


51
(
 1.00000e-60
 6.52160e-04
 7.52469e-04
 9.92278e-04
 8.77232e-04
 8.41268e-04
 3.28679e-03
 3.59768e-03
 3.89379e-03
 4.16941e-03
 4.42258e-03
 4.61882e-03
 4.67406e-03
 4.58541e-03
 6.39007e-04
 6.21462e-04
 6.03875e-04
 5.86254e-04
 5.68607e-04
 5.50938e-04
 5.33250e-04
 5.15548e-04
 4.97833e-04
 4.80106e-04
 4.62371e-04
 4.44628e-04
 4.26878e-04
 4.09122e-04
 3.91361e-04
 3.73596e-04
 3.55826e-04
 3.38053e-04
 3.20277e-04
 3.02498e-04
 2.84717e-04
 2.66933e-04
 2.49147e-04
 2.31359e-04
 2.13569e-04
 1.95777e-04
 1.77984e-04
 1.60190e-04
 1.42394e-04
 1.24598e-04
 1.06800e-04
 8.90016e-05
 7.12023e-05
 5.34026e-05
 3.56021e-05
 1.78012e-05
 1.00000e-60
)


51
(
 1.00000e-60
 6.48421e-04
 7.87200e-04
 1.03808e-03
 9.17720e-04
 8.79598e-04
 3.35910e-03
 3.67450e-03
 3.97278e-03
 4.25582e-03
 4.52743e-03
 4.74849e-03
 4.90481e-03
 4.82675e-03
 6.72639e-04
 6.54170e-04
 6.35658e-04
 6.17110e-04
 5.98534e-04
 5.79934e-04
 5.61316e-04
 5.42682e-04
 5.24034e-04
 5.05375e-04
 4.86706e-04
 4.68029e-04
 4.49345e-04
 4.30655e-04
 4.11959e-04
 3.93258e-04
 3.74554e-04
 3.55846e-04
 3.37134e-04
 3.18419e-04
 2.99702e-04
 2.80982e-04
 2.62260e-04
 2.43535e-04
 2.24809e-04
 2.06081e-04
 1.87352e-04
 1.68621e-04
 1.49889e-04
 1.31155e-04
 1.12421e-04
 9.36859e-05
 7.49498e-05
 5.62132e-05
 3.74759e-05
 1.87381e-05
 1.00000e-60
)


51
(
 1.00000e-60
 6.42878e-04
 8.16001e-04
 1.07606e-03
 9.51296e-04
 9.11371e-04
 3.39419e-03
 2.67518e-03
 3.23441e-03
 4.28158e-03
 3.46266e-03
 4.03151e-03
 5.02473e-03
 5.06808e-03
 7.06271e-04
 6.86879e-04
 6.67440e-04
 6.47965e-04
 6.28460e-04
 6.08931e-04
 5.89382e-04
 5.69816e-04
 5.50236e-04
 5.30644e-04
 5.11042e-04
 4.91431e-04
 4.71812e-04
 4.52187e-04
 4.32557e-04
 4.12921e-04
 3.93282e-04
 3.73638e-04
 3.53991e-04
 3.34340e-04
 3.14687e-04
 2.95031e-04
 2.75373e-04
 2.55712e-04
 2.36050e-04
 2.16385e-04
 1.96719e-04
 1.77052e-04
 1.57383e-04
 1.37713e-04
 1.18042e-04
 9.83702e-05
 7.86973e-05
 5.90239e-05
 3.93496e-05
 1.96750e-05
 1.00000e-60
)


51
(
 1.00000e-60
 6.34903e-04
 8.38094e-04
 1.10519e-03
 9.77052e-04
 9.35736e-04
 3.42678e-03
 1.31978e-03
 1.39086e-03
 1.58288e-03
 1.38658e-03
 1.48873e-03
 2.03708e-03
 2.08270e-03
 7.39903e-04
 7.19587e-04
 6.99223e-04
 6.78821e-04
 6.58387e-04
 6.37928e-04
 6.17448e-04
 5.96950e-04
 5.76438e-04
 5.55913e-04
 5.35377e-04
 5.14832e-04
 4.94279e-04
 4.73720e-04
 4.53155e-04
 4.32584e-04
 4.12009e-04
 3.91430e-04
 3.70847e-04
 3.50261e-04
 3.29672e-04
 3.09080e-04
 2.88486e-04
 2.67889e-04
 2.47290e-04
 2.26689e-04
 2.06087e-04
 1.85483e-04
 1.64878e-04
 1.44271e-04
 1.23663e-04
 1.03054e-04
 8.24448e-05
 6.18345e-05
 4.12234e-05
 2.06119e-05
 1.00000e-60
)


51
(
 1.00000e-60
 6.23276e-04
 8.52701e-04
 1.12445e-03
 9.94080e-04
 9.51840e-04
 1.33714e-03
 2.30547e-03
 2.88318e-03
 2.73997e-03
 1.07660e-03
 1.05007e-03
 1.02398e-03
 9.97851e-04
 9.71585e-04
 4.26119e-03
 2.89422e-03
 2.37027e-03
 8.65309e-04
 8.38534e-04
 8.11707e-04
 7.84838e-04
 7.57931e-04
 7.30994e-04
 7.04035e-04
 6.77053e-04
 6.50055e-04
 6.23041e-04
 5.96015e-04
 5.68976e-04
 5.41929e-04
 5.14876e-04
 4.87811e-04
 4.60742e-04
 4.33668e-04
 4.06585e-04
 3.79500e-04
 3.52409e-04
 3.25316e-04
 2.98218e-04
 2.71118e-04
 2.44015e-04
 2.16909e-04
 1.89801e-04
 1.62691e-04
 1.35578e-04
 1.08465e-04
 8.13509e-05
 5.42346e-05
 2.71176e-05
 1.00000e-60
)


51
(
 1.00000e-60
 6.07633e-04
 8.59043e-04
 1.13282e-03
 1.00147e-03
 9.58830e-04
 2.21767e-03
 1.72187e-03
 1.69400e-03
 1.65892e-03
 1.62136e-03
 1.58275e-03
 3.61254e-03
 4.30705e-03
 1.46429e-03
 4.00621e-03
 2.98727e-03
 2.67881e-03
 2.52217e-03
 2.41481e-03
 2.32565e-03
 2.24355e-03
 2.16431e-03
 2.08620e-03
 2.00854e-03
 1.93109e-03
 1.85373e-03
 1.77643e-03
 1.69915e-03
 1.62189e-03
 1.54464e-03
 1.46739e-03
 1.39016e-03
 1.31292e-03
 1.23568e-03
 1.15845e-03
 1.08122e-03
 1.00399e-03
 9.26752e-04
 8.49526e-04
 7.72296e-04
 6.95067e-04
 6.17838e-04
 5.40608e-04
 4.63378e-04
 3.86151e-04
 3.08920e-04
 2.31689e-04
 1.54459e-04
 7.72293e-05
 1.00000e-60
)


51
(
 1.00000e-60
 5.89509e-04
 8.56547e-04
 1.12953e-03
 9.98659e-04
 9.56232e-04
 1.64082e-03
 1.78961e-03
 1.74698e-03
 1.68842e-03
 1.63418e-03
 3.84470e-03
 1.54050e-03
 1.49742e-03
 1.45551e-03
 5.02284e-03
 1.37340e-03
 1.33273e-03
 1.29218e-03
 1.25171e-03
 1.21128e-03
 1.17087e-03
 1.13048e-03
 1.09011e-03
 1.04974e-03
 1.00937e-03
 9.69005e-04
 9.28640e-04
 8.88272e-04
 8.47913e-04
 8.07548e-04
 7.67170e-04
 7.26805e-04
 6.86437e-04
 6.46064e-04
 6.05699e-04
 5.65325e-04
 5.24952e-04
 4.84574e-04
 4.44198e-04
 4.03821e-04
 3.63441e-04
 3.23061e-04
 2.82682e-04
 2.42301e-04
 2.01919e-04
 1.61535e-04
 1.21151e-04
 8.07675e-05
 4.03838e-05
 1.00000e-60
)


51
(
 1.00000e-60
 5.71386e-04
 8.45693e-04
 1.11521e-03
 9.86378e-04
 9.44869e-04
 1.20884e-03
 3.03765e-03
 1.53576e-03
 1.14788e-03
 1.09985e-03
 1.06246e-03
 2.03235e-03
 9.99919e-04
 4.55226e-03
 2.32376e-03
 1.73899e-03
 1.55398e-03
 1.46052e-03
 1.39731e-03
 1.34532e-03
 1.29764e-03
 1.25169e-03
 1.20641e-03
 1.16141e-03
 1.11657e-03
 1.07177e-03
 1.02703e-03
 9.82308e-04
 9.37610e-04
 8.92935e-04
 8.48236e-04
 8.03566e-04
 7.58911e-04
 7.14237e-04
 6.69605e-04
 6.24946e-04
 5.80297e-04
 5.35646e-04
 4.91011e-04
 4.46372e-04
 4.01727e-04
 3.57077e-04
 3.12439e-04
 2.67816e-04
 2.23178e-04
 1.78537e-04
 1.33899e-04
 8.92650e-05
 4.46320e-05
 1.00000e-60
)


51
(
 1.00000e-60
 5.46237e-04
 8.27227e-04
 1.09086e-03
 9.65472e-04
 9.25510e-04
 7.86370e-04
 1.58814e-03
 2.31560e-03
 3.27067e-03
 2.75314e-03
 2.28476e-03
 2.90501e-03
 2.28311e-03
 2.69480e-03
 2.19274e-03
 2.13638e-03
 2.07706e-03
 2.01614e-03
 1.95437e-03
 1.89211e-03
 1.82957e-03
 1.76685e-03
 1.70402e-03
 1.64111e-03
 1.57814e-03
 1.51514e-03
 1.45211e-03
 1.38906e-03
 1.32599e-03
 1.26290e-03
 1.19982e-03
 1.13670e-03
 1.07358e-03
 1.01046e-03
 9.47325e-04
 8.84189e-04
 8.21044e-04
 7.57902e-04
 6.94753e-04
 6.31599e-04
 5.68442e-04
 5.05286e-04
 4.42128e-04
 3.78968e-04
 3.15809e-04
 2.52650e-04
 1.89490e-04
 1.26327e-04
 6.31634e-05
 1.00000e-60
)


51
(
 1.00000e-60
 5.19650e-04
 8.01894e-04
 1.05745e-03
 9.36772e-04
 8.98907e-04
 7.72630e-04
 7.55863e-04
 7.39524e-04
 7.23054e-04
 2.89957e-03
 3.44405e-03
 3.59262e-03
 3.44440e-03
 3.16573e-03
 3.06282e-03
 2.96822e-03
 2.87719e-03
 2.78797e-03
 2.69971e-03
 2.61198e-03
 2.52453e-03
 2.43726e-03
 2.35009e-03
 2.26297e-03
 2.17588e-03
 2.08882e-03
 2.00177e-03
 1.91473e-03
 1.82769e-03
 1.74065e-03
 1.65361e-03
 1.56658e-03
 1.47955e-03
 1.39252e-03
 1.30548e-03
 1.21845e-03
 1.13142e-03
 1.04439e-03
 9.57356e-04
 8.70324e-04
 7.83292e-04
 6.96259e-04
 6.09228e-04
 5.22195e-04
 4.35163e-04
 3.48130e-04
 2.61097e-04
 1.74065e-04
 8.70325e-05
 1.00000e-60
)


51
(
 1.00000e-60
 4.93062e-04
 7.70440e-04
 1.01598e-03
 9.01106e-04
 8.65815e-04
 7.55562e-04
 7.39006e-04
 7.23018e-04
 7.06948e-04
 1.58778e-03
 1.79982e-03
 1.89930e-03
 1.93645e-03
 2.18896e-03
 2.18594e-03
 2.14901e-03
 2.09591e-03
 2.03602e-03
 1.97353e-03
 1.91016e-03
 1.84654e-03
 1.78286e-03
 1.71918e-03
 1.65552e-03
 1.59186e-03
 1.52821e-03
 1.46456e-03
 1.40091e-03
 1.33725e-03
 1.27358e-03
 1.20992e-03
 1.14626e-03
 1.08258e-03
 1.01891e-03
 9.55237e-04
 8.91560e-04
 8.27882e-04
 7.64205e-04
 7.00521e-04
 6.36841e-04
 5.73159e-04
 5.09477e-04
 4.45795e-04
 3.82109e-04
 3.18424e-04
 2.54741e-04
 1.91057e-04
 1.27371e-04
 6.36858e-05
 1.00000e-60
)


51
(
 1.00000e-60
 4.66475e-04
 7.33609e-04
 9.67408e-04
 8.59305e-04
 8.26987e-04
 7.37777e-04
 7.20397e-04
 7.04434e-04
 6.88688e-04
 6.72820e-04
 6.56757e-04
 6.40532e-04
 6.24169e-04
 6.07697e-04
 5.91137e-04
 5.74508e-04
 5.57823e-04
 5.41095e-04
 5.24330e-04
 5.07535e-04
 4.90716e-04
 4.73877e-04
 4.57019e-04
 4.40148e-04
 4.23264e-04
 4.06370e-04
 3.89467e-04
 3.72558e-04
 3.55642e-04
 3.38722e-04
 3.21798e-04
 3.04872e-04
 2.87943e-04
 2.71012e-04
 2.54079e-04
 2.37145e-04
 2.20210e-04
 2.03274e-04
 1.86337e-04
 1.69399e-04
 1.52461e-04
 1.35522e-04
 1.18583e-04
 1.01643e-04
 8.47032e-05
 6.77630e-05
 5.08225e-05
 3.38818e-05
 1.69409e-05
 1.00000e-60
)


51
(
 1.00000e-60
 4.34808e-04
 6.92146e-04
 9.12730e-04
 8.12199e-04
 7.83177e-04
 7.13744e-04
 6.96383e-04
 6.80759e-04
 6.65487e-04
 6.50151e-04
 6.34647e-04
 6.18992e-04
 6.03203e-04
 5.87306e-04
 5.71321e-04
 5.55266e-04
 5.39154e-04
 5.22996e-04
 5.06801e-04
 4.90576e-04
 4.74325e-04
 4.58053e-04
 4.41762e-04
 4.25457e-04
 4.09139e-04
 3.92810e-04
 3.76473e-04
 3.60128e-04
 3.43777e-04
 3.27422e-04
 3.11063e-04
 2.94700e-04
 2.78336e-04
 2.61970e-04
 2.45602e-04
 2.29232e-04
 2.12862e-04
 1.96491e-04
 1.80119e-04
 1.63746e-04
 1.47373e-04
 1.31000e-04
 1.14626e-04
 9.82512e-05
 8.18765e-05
 6.55015e-05
 4.91264e-05
 3.27510e-05
 1.63756e-05
 1.00000e-60
)


51
(
 1.00000e-60
 4.01803e-04
 6.46795e-04
 8.52927e-04
 7.60617e-04
 7.35138e-04
 6.89712e-04
 6.72369e-04
 6.56861e-04
 6.41987e-04
 6.27165e-04
 6.12221e-04
 5.97142e-04
 5.81937e-04
 5.66624e-04
 5.51222e-04
 5.35749e-04
 5.20218e-04
 5.04640e-04
 4.89024e-04
 4.73375e-04
 4.57701e-04
 4.42004e-04
 4.26289e-04
 4.10558e-04
 3.94814e-04
 3.79058e-04
 3.63294e-04
 3.47522e-04
 3.31744e-04
 3.15962e-04
 3.00175e-04
 2.84385e-04
 2.68593e-04
 2.52800e-04
 2.37004e-04
 2.21208e-04
 2.05411e-04
 1.89612e-04
 1.73813e-04
 1.58014e-04
 1.42214e-04
 1.26413e-04
 1.10612e-04
 9.48114e-05
 7.90099e-05
 6.32082e-05
 4.74064e-05
 3.16044e-05
 1.58022e-05
 1.00000e-60
)


51
(
 1.00000e-60
 3.68798e-04
 5.98302e-04
 7.88979e-04
 7.05391e-04
 6.83623e-04
 6.61278e-04
 6.42993e-04
 6.27757e-04
 6.13394e-04
 5.99179e-04
 5.84891e-04
 5.70492e-04
 5.55979e-04
 5.41365e-04
 5.26666e-04
 5.11897e-04
 4.97070e-04
 4.82196e-04
 4.67283e-04
 4.52339e-04
 4.37367e-04
 4.22373e-04
 4.07359e-04
 3.92331e-04
 3.77288e-04
 3.62234e-04
 3.47171e-04
 3.32100e-04
 3.17023e-04
 3.01941e-04
 2.86855e-04
 2.71766e-04
 2.56675e-04
 2.41582e-04
 2.26487e-04
 2.11392e-04
 1.96295e-04
 1.81198e-04
 1.66100e-04
 1.51002e-04
 1.35903e-04
 1.20803e-04
 1.05704e-04
 9.06038e-05
 7.55035e-05
 6.04031e-05
 4.53025e-05
 3.02018e-05
 1.51009e-05
 1.00000e-60
)


51
(
 1.00000e-60
 3.32703e-04
 5.47411e-04
 7.21869e-04
 6.47350e-04
 6.29387e-04
 6.30883e-04
 6.11872e-04
 5.96762e-04
 5.82872e-04
 5.69273e-04
 5.55671e-04
 5.41990e-04
 5.28212e-04
 5.14342e-04
 5.00391e-04
 4.86373e-04
 4.72298e-04
 4.58176e-04
 4.44015e-04
 4.29822e-04
 4.15603e-04
 4.01360e-04
 3.87098e-04
 3.72820e-04
 3.58528e-04
 3.44225e-04
 3.29912e-04
 3.15592e-04
 3.01265e-04
 2.86933e-04
 2.72597e-04
 2.58258e-04
 2.43917e-04
 2.29574e-04
 2.15230e-04
 2.00885e-04
 1.86538e-04
 1.72191e-04
 1.57844e-04
 1.43496e-04
 1.29147e-04
 1.14799e-04
 1.00449e-04
 8.61001e-05
 7.17504e-05
 5.74006e-05
 4.30507e-05
 2.87005e-05
 1.43503e-05
 1.00000e-60
)


51
(
 1.00000e-60
 2.96375e-04
 4.94867e-04
 6.52579e-04
 5.87324e-04
 5.73182e-04
 5.97809e-04
 5.78023e-04
 5.63035e-04
 5.49636e-04
 5.36690e-04
 5.23819e-04
 5.10908e-04
 4.97921e-04
 4.84855e-04
 4.71715e-04
 4.58511e-04
 4.45253e-04
 4.31950e-04
 4.18608e-04
 4.05235e-04
 3.91835e-04
 3.78412e-04
 3.64969e-04
 3.51511e-04
 3.38039e-04
 3.24555e-04
 3.11062e-04
 2.97561e-04
 2.84054e-04
 2.70541e-04
 2.57025e-04
 2.43505e-04
 2.29983e-04
 2.16460e-04
 2.02935e-04
 1.89409e-04
 1.75882e-04
 1.62355e-04
 1.48827e-04
 1.35299e-04
 1.21770e-04
 1.08241e-04
 9.47111e-05
 8.11815e-05
 6.76515e-05
 5.41215e-05
 4.05913e-05
 2.70609e-05
 1.35305e-05
 1.00000e-60
)


51
(
 1.00000e-60
 2.60047e-04
 4.41414e-04
 5.82092e-04
 5.26143e-04
 5.15763e-04
 5.62438e-04
 5.42263e-04
 5.27527e-04
 5.14672e-04
 5.02410e-04
 4.90300e-04
 4.78191e-04
 4.66030e-04
 4.53804e-04
 4.41514e-04
 4.29165e-04
 4.16765e-04
 4.04321e-04
 3.91840e-04
 3.79329e-04
 3.66792e-04
 3.54232e-04
 3.41652e-04
 3.29057e-04
 3.16449e-04
 3.03828e-04
 2.91199e-04
 2.78561e-04
 2.65917e-04
 2.53268e-04
 2.40615e-04
 2.27959e-04
 2.15300e-04
 2.02640e-04
 1.89979e-04
 1.77316e-04
 1.64653e-04
 1.51989e-04
 1.39325e-04
 1.26660e-04
 1.13995e-04
 1.01330e-04
 8.86643e-05
 7.59984e-05
 6.33323e-05
 5.06661e-05
 3.79997e-05
 2.53332e-05
 1.26666e-05
 1.00000e-60
)


51
(
 1.00000e-60
 2.23005e-04
 3.87798e-04
 5.11388e-04
 4.64636e-04
 4.57883e-04
 5.25179e-04
 5.04153e-04
 4.89536e-04
 4.77206e-04
 4.65651e-04
 4.54342e-04
 4.43082e-04
 4.31799e-04
 4.20468e-04
 4.09084e-04
 3.97648e-04
 3.86166e-04
 3.74643e-04
 3.63085e-04
 3.51498e-04
 3.39886e-04
 3.28252e-04
 3.16599e-04
 3.04931e-04
 2.93249e-04
 2.81556e-04
 2.69854e-04
 2.58144e-04
 2.46428e-04
 2.34707e-04
 2.22981e-04
 2.11253e-04
 1.99522e-04
 1.87790e-04
 1.76057e-04
 1.64322e-04
 1.52587e-04
 1.40851e-04
 1.29115e-04
 1.17378e-04
 1.05641e-04
 9.39042e-05
 8.21667e-05
 7.04291e-05
 5.86912e-05
 4.69532e-05
 3.52150e-05
 2.34768e-05
 1.17384e-05
 1.00000e-60
)


51
(
 1.00000e-60
 1.85925e-04
 3.34763e-04
 4.41452e-04
 4.03635e-04
 4.00294e-04
 4.88395e-04
 4.67187e-04
 4.52840e-04
 4.41042e-04
 4.30163e-04
 4.19615e-04
 4.09167e-04
 3.98725e-04
 3.88255e-04
 3.77743e-04
 3.67188e-04
 3.56592e-04
 3.45958e-04
 3.35293e-04
 3.24599e-04
 3.13880e-04
 3.03141e-04
 2.92384e-04
 2.81612e-04
 2.70826e-04
 2.60030e-04
 2.49225e-04
 2.38411e-04
 2.27592e-04
 2.16767e-04
 2.05939e-04
 1.95107e-04
 1.84273e-04
 1.73438e-04
 1.62601e-04
 1.51764e-04
 1.40925e-04
 1.30086e-04
 1.19247e-04
 1.08408e-04
 9.75676e-05
 8.67274e-05
 7.58870e-05
 6.50464e-05
 5.42056e-05
 4.33647e-05
 3.25237e-05
 2.16825e-05
 1.08413e-05
 1.00000e-60
)


51
(
 1.00000e-60
 1.48846e-04
 2.83054e-04
 3.73263e-04
 3.43969e-04
 3.43752e-04
 4.51357e-04
 4.28662e-04
 4.14227e-04
 4.02893e-04
 3.92706e-04
 3.82956e-04
 3.73363e-04
 3.63809e-04
 3.54246e-04
 3.44654e-04
 3.35026e-04
 3.25364e-04
 3.15668e-04
 3.05943e-04
 2.96191e-04
 2.86415e-04
 2.76620e-04
 2.66808e-04
 2.56982e-04
 2.47143e-04
 2.37293e-04
 2.27435e-04
 2.17569e-04
 2.07696e-04
 1.97818e-04
 1.87937e-04
 1.78053e-04
 1.68166e-04
 1.58278e-04
 1.48389e-04
 1.38498e-04
 1.28608e-04
 1.18716e-04
 1.08824e-04
 9.89321e-05
 8.90397e-05
 7.91470e-05
 6.92540e-05
 5.93609e-05
 4.94677e-05
 3.95744e-05
 2.96809e-05
 1.97874e-05
 9.89370e-06
 1.00000e-60
)


51
(
 1.00000e-60
 1.14982e-04
 2.33416e-04
 3.07805e-04
 2.86467e-04
 2.89009e-04
 4.09076e-04
 3.85744e-04
 3.71558e-04
 3.60845e-04
 3.51453e-04
 3.42589e-04
 3.33934e-04
 3.25351e-04
 3.16779e-04
 3.08193e-04
 2.99581e-04
 2.90941e-04
 2.82274e-04
 2.73580e-04
 2.64863e-04
 2.56125e-04
 2.47369e-04
 2.38597e-04
 2.29812e-04
 2.21016e-04
 2.12209e-04
 2.03394e-04
 1.94572e-04
 1.85744e-04
 1.76911e-04
 1.68075e-04
 1.59236e-04
 1.50394e-04
 1.41551e-04
 1.32707e-04
 1.23862e-04
 1.15016e-04
 1.06170e-04
 9.73239e-05
 8.84771e-05
 7.96301e-05
 7.07829e-05
 6.19354e-05
 5.30878e-05
 4.42400e-05
 3.53922e-05
 2.65443e-05
 1.76963e-05
 8.84816e-06
 1.00000e-60
)


51
(
 1.00000e-60
 8.26528e-05
 1.86593e-04
 2.46060e-04
 2.31961e-04
 2.36820e-04
 3.65414e-04
 3.41647e-04
 3.27819e-04
 3.17785e-04
 3.09223e-04
 3.01271e-04
 2.93579e-04
 2.85988e-04
 2.78429e-04
 2.70870e-04
 2.63296e-04
 2.55701e-04
 2.48084e-04
 2.40446e-04
 2.32787e-04
 2.25109e-04
 2.17416e-04
 2.09709e-04
 2.01990e-04
 1.94260e-04
 1.86521e-04
 1.78775e-04
 1.71022e-04
 1.63263e-04
 1.55500e-04
 1.47734e-04
 1.39965e-04
 1.32194e-04
 1.24421e-04
 1.16647e-04
 1.08873e-04
 1.01097e-04
 9.33220e-05
 8.55460e-05
 7.77699e-05
 6.99935e-05
 6.22169e-05
 5.44402e-05
 4.66633e-05
 3.88863e-05
 3.11092e-05
 2.33320e-05
 1.55548e-05
 7.77739e-06
 1.00000e-60
)


51
(
 1.00000e-60
 5.14263e-05
 1.43331e-04
 1.89010e-04
 1.81279e-04
 1.87936e-04
 3.20459e-04
 2.96519e-04
 2.83150e-04
 2.73856e-04
 2.66167e-04
 2.59157e-04
 2.52451e-04
 2.45873e-04
 2.39347e-04
 2.32834e-04
 2.26316e-04
 2.19785e-04
 2.13237e-04
 2.06672e-04
 2.00090e-04
 1.93493e-04
 1.86882e-04
 1.80259e-04
 1.73625e-04
 1.66983e-04
 1.60332e-04
 1.53675e-04
 1.47011e-04
 1.40343e-04
 1.33670e-04
 1.26995e-04
 1.20317e-04
 1.13637e-04
 1.06955e-04
 1.00273e-04
 9.35899e-05
 8.69063e-05
 8.02222e-05
 7.35379e-05
 6.68533e-05
 6.01685e-05
 5.34835e-05
 4.67984e-05
 4.01132e-05
 3.34278e-05
 2.67424e-05
 2.00569e-05
 1.33714e-05
 6.68569e-06
 1.00000e-60
)


51
(
 1.00000e-60
 8.38822e-06
 1.04373e-04
 1.37637e-04
 1.35253e-04
 1.43113e-04
 2.74362e-04
 2.50492e-04
 2.37749e-04
 2.29280e-04
 2.22512e-04
 2.16478e-04
 2.10781e-04
 2.05236e-04
 1.99758e-04
 1.94305e-04
 1.88856e-04
 1.83400e-04
 1.77934e-04
 1.72456e-04
 1.66964e-04
 1.61460e-04
 1.55945e-04