/*--------------------------------*- C++ -*----------------------------------*\
| =========                 |                                                 |
| \      /  F ield          | OpenFOAM: The Open Source CFD Toolbox           |
|  \    /   O peration      | Version:  7                                     |
|   \  /    A nd            | Web:      http://www.OpenFOAM.com               |
|    \/     M anipulation   |                                                 |
\*---------------------------------------------------------------------------*/
FoamFile 
{   version     2.0;
    format      ascii;
    class       dictionary;
    location    "constant";
    object      LDMtable;
}
// * * * * * * * * * * * * * * * * * * * * * * * * * * * * * * * * * * * * * //

CH4_table
51
(

51
(
 1.00000e-60
 2.00000e-02
 3.91775e-02
 6.02166e-02
 8.03541e-02
 9.96468e-02
 1.20000e-01
 1.40000e-01
 1.60000e-01
 1.80000e-01
 2.00000e-01
 2.20000e-01
 2.40000e-01
 2.60000e-01
 2.80000e-01
 3.00000e-01
 3.20000e-01
 3.40000e-01
 3.60000e-01
 3.80000e-01
 4.00000e-01
 4.20000e-01
 4.40000e-01
 4.60000e-01
 4.80000e-01
 5.00000e-01
 5.20000e-01
 5.40000e-01
 5.60000e-01
 5.80000e-01
 6.00000e-01
 6.20000e-01
 6.40000e-01
 6.60000e-01
 6.80000e-01
 7.00000e-01
 7.20000e-01
 7.40000e-01
 7.60000e-01
 7.80000e-01
 8.00000e-01
 8.20000e-01
 8.40000e-01
 8.60000e-01
 8.80000e-01
 9.00000e-01
 9.20000e-01
 9.40000e-01
 9.60000e-01
 9.80000e-01
 1.00000e+00
)


51
(
 1.00000e-60
 1.93217e-02
 3.91595e-02
 6.01902e-02
 8.03088e-02
 9.90598e-02
 1.17950e-01
 1.37987e-01
 1.58030e-01
 1.78076e-01
 1.98122e-01
 2.18168e-01
 2.38214e-01
 2.58260e-01
 2.78714e-01
 2.98750e-01
 3.18786e-01
 3.38822e-01
 3.58857e-01
 3.78893e-01
 3.98929e-01
 4.18964e-01
 4.39000e-01
 4.59036e-01
 4.79072e-01
 4.99107e-01
 5.19143e-01
 5.39179e-01
 5.59214e-01
 5.79250e-01
 5.99286e-01
 6.19321e-01
 6.39357e-01
 6.59393e-01
 6.79429e-01
 6.99464e-01
 7.19500e-01
 7.39536e-01
 7.59571e-01
 7.79607e-01
 7.99643e-01
 8.19679e-01
 8.39714e-01
 8.59750e-01
 8.79786e-01
 8.99821e-01
 9.19857e-01
 9.39893e-01
 9.59929e-01
 9.79964e-01
 1.00000e+00
)


51
(
 1.00000e-60
 1.86434e-02
 3.89929e-02
 5.99457e-02
 8.00531e-02
 9.82797e-02
 1.15900e-01
 1.35973e-01
 1.56060e-01
 1.76152e-01
 1.96244e-01
 2.16337e-01
 2.36429e-01
 2.56521e-01
 2.77429e-01
 2.97500e-01
 3.17572e-01
 3.37643e-01
 3.57715e-01
 3.77786e-01
 3.97857e-01
 4.17929e-01
 4.38000e-01
 4.58072e-01
 4.78143e-01
 4.98214e-01
 5.18286e-01
 5.38357e-01
 5.58429e-01
 5.78500e-01
 5.98572e-01
 6.18643e-01
 6.38714e-01
 6.58786e-01
 6.78857e-01
 6.98929e-01
 7.19000e-01
 7.39072e-01
 7.59143e-01
 7.79214e-01
 7.99286e-01
 8.19357e-01
 8.39429e-01
 8.59500e-01
 8.79571e-01
 8.99643e-01
 9.19714e-01
 9.39786e-01
 9.59857e-01
 9.79929e-01
 1.00000e+00
)


51
(
 1.00000e-60
 1.79650e-02
 3.86620e-02
 5.94598e-02
 7.95694e-02
 9.73968e-02
 1.13850e-01
 1.33960e-01
 1.54090e-01
 1.74227e-01
 1.94366e-01
 2.14505e-01
 2.34643e-01
 2.54781e-01
 2.76143e-01
 2.96250e-01
 3.16358e-01
 3.36465e-01
 3.56572e-01
 3.76679e-01
 3.96786e-01
 4.16893e-01
 4.37000e-01
 4.57107e-01
 4.77215e-01
 4.97322e-01
 5.17429e-01
 5.37536e-01
 5.57643e-01
 5.77750e-01
 5.97857e-01
 6.17964e-01
 6.38072e-01
 6.58179e-01
 6.78286e-01
 6.98393e-01
 7.18500e-01
 7.38607e-01
 7.58714e-01
 7.78822e-01
 7.98929e-01
 8.19036e-01
 8.39143e-01
 8.59250e-01
 8.79357e-01
 8.99464e-01
 9.19571e-01
 9.39679e-01
 9.59786e-01
 9.79893e-01
 1.00000e+00
)


51
(
 1.00000e-60
 1.72867e-02
 3.81795e-02
 5.87506e-02
 7.88732e-02
 9.64166e-02
 1.11801e-01
 1.31946e-01
 1.52120e-01
 1.72303e-01
 1.92488e-01
 2.12673e-01
 2.32857e-01
 2.53041e-01
 2.74858e-01
 2.95001e-01
 3.15143e-01
 3.35286e-01
 3.55429e-01
 3.75572e-01
 3.95715e-01
 4.15858e-01
 4.36000e-01
 4.56143e-01
 4.76286e-01
 4.96429e-01
 5.16572e-01
 5.36715e-01
 5.56857e-01
 5.77000e-01
 5.97143e-01
 6.17286e-01
 6.37429e-01
 6.57572e-01
 6.77714e-01
 6.97857e-01
 7.18000e-01
 7.38143e-01
 7.58286e-01
 7.78429e-01
 7.98572e-01
 8.18714e-01
 8.38857e-01
 8.59000e-01
 8.79143e-01
 8.99286e-01
 9.19429e-01
 9.39571e-01
 9.59714e-01
 9.79857e-01
 1.00000e+00
)


51
(
 1.00000e-60
 1.66315e-02
 3.75579e-02
 5.78363e-02
 7.79797e-02
 9.53443e-02
 1.09751e-01
 1.29933e-01
 1.50150e-01
 1.70379e-01
 1.90611e-01
 2.10842e-01
 2.31072e-01
 2.51301e-01
 2.73572e-01
 2.93751e-01
 3.13929e-01
 3.34108e-01
 3.54286e-01
 3.74465e-01
 3.94643e-01
 4.14822e-01
 4.35000e-01
 4.55179e-01
 4.75358e-01
 4.95536e-01
 5.15715e-01
 5.35893e-01
 5.56072e-01
 5.76250e-01
 5.96429e-01
 6.16607e-01
 6.36786e-01
 6.56965e-01
 6.77143e-01
 6.97322e-01
 7.17500e-01
 7.37679e-01
 7.57857e-01
 7.78036e-01
 7.98214e-01
 8.18393e-01
 8.38572e-01
 8.58750e-01
 8.78929e-01
 8.99107e-01
 9.19286e-01
 9.39464e-01
 9.59643e-01
 9.79821e-01
 1.00000e+00
)


51
(
 1.00000e-60
 1.60110e-02
 3.68097e-02
 5.67354e-02
 7.69042e-02
 9.41852e-02
 1.07701e-01
 1.27919e-01
 1.48180e-01
 1.68455e-01
 1.88733e-01
 2.09010e-01
 2.29286e-01
 2.49562e-01
 2.72287e-01
 2.92501e-01
 3.12715e-01
 3.32929e-01
 3.53144e-01
 3.73358e-01
 3.93572e-01
 4.13786e-01
 4.34001e-01
 4.54215e-01
 4.74429e-01
 4.94643e-01
 5.14858e-01
 5.35072e-01
 5.55286e-01
 5.75500e-01
 5.95715e-01
 6.15929e-01
 6.36143e-01
 6.56357e-01
 6.76572e-01
 6.96786e-01
 7.17000e-01
 7.37215e-01
 7.57429e-01
 7.77643e-01
 7.97857e-01
 8.18072e-01
 8.38286e-01
 8.58500e-01
 8.78714e-01
 8.98929e-01
 9.19143e-01
 9.39357e-01
 9.59571e-01
 9.79786e-01
 1.00000e+00
)


51
(
 1.00000e-60
 1.54038e-02
 3.59477e-02
 5.54659e-02
 7.56621e-02
 9.29446e-02
 1.05651e-01
 1.25906e-01
 1.46211e-01
 1.66531e-01
 1.86855e-01
 2.07178e-01
 2.27500e-01
 2.47822e-01
 2.71001e-01
 2.91251e-01
 3.11501e-01
 3.31751e-01
 3.52001e-01
 3.72251e-01
 3.92501e-01
 4.12751e-01
 4.33001e-01
 4.53251e-01
 4.73501e-01
 4.93751e-01
 5.14001e-01
 5.34251e-01
 5.54501e-01
 5.74750e-01
 5.95000e-01
 6.15250e-01
 6.35500e-01
 6.55750e-01
 6.76000e-01
 6.96250e-01
 7.16500e-01
 7.36750e-01
 7.57000e-01
 7.77250e-01
 7.97500e-01
 8.17750e-01
 8.38000e-01
 8.58250e-01
 8.78500e-01
 8.98750e-01
 9.19000e-01
 9.39250e-01
 9.59500e-01
 9.79750e-01
 1.00000e+00
)


51
(
 1.00000e-60
 1.48080e-02
 3.49844e-02
 5.40461e-02
 7.42686e-02
 9.16278e-02
 1.03601e-01
 1.23892e-01
 1.44241e-01
 1.64607e-01
 1.84977e-01
 2.05346e-01
 2.25715e-01
 2.46082e-01
 2.69716e-01
 2.90001e-01
 3.10287e-01
 3.30572e-01
 3.50858e-01
 3.71144e-01
 3.91429e-01
 4.11715e-01
 4.32001e-01
 4.52286e-01
 4.72572e-01
 4.92858e-01
 5.13143e-01
 5.33429e-01
 5.53715e-01
 5.74001e-01
 5.94286e-01
 6.14572e-01
 6.34858e-01
 6.55143e-01
 6.75429e-01
 6.95715e-01
 7.16000e-01
 7.36286e-01
 7.56572e-01
 7.76857e-01
 7.97143e-01
 8.17429e-01
 8.37714e-01
 8.58000e-01
 8.78286e-01
 8.98572e-01
 9.18857e-01
 9.39143e-01
 9.59429e-01
 9.79714e-01
 1.00000e+00
)


51
(
 1.00000e-60
 1.42194e-02
 3.39324e-02
 5.24942e-02
 7.27390e-02
 9.02401e-02
 1.01570e-01
 1.21879e-01
 1.42271e-01
 1.62682e-01
 1.83099e-01
 2.03515e-01
 2.23929e-01
 2.44342e-01
 2.68430e-01
 2.88751e-01
 3.09073e-01
 3.29394e-01
 3.49715e-01
 3.70037e-01
 3.90358e-01
 4.10679e-01
 4.31001e-01
 4.51322e-01
 4.71644e-01
 4.91965e-01
 5.12286e-01
 5.32608e-01
 5.52929e-01
 5.73251e-01
 5.93572e-01
 6.13893e-01
 6.34215e-01
 6.54536e-01
 6.74858e-01
 6.95179e-01
 7.15500e-01
 7.35822e-01
 7.56143e-01
 7.76465e-01
 7.96786e-01
 8.17107e-01
 8.37429e-01
 8.57750e-01
 8.78072e-01
 8.98393e-01
 9.18714e-01
 9.39036e-01
 9.59357e-01
 9.79679e-01
 1.00000e+00
)


51
(
 1.00000e-60
 1.36358e-02
 3.28043e-02
 5.08286e-02
 7.10887e-02
 8.87869e-02
 9.96505e-02
 1.19866e-01
 1.40301e-01
 1.60758e-01
 1.81221e-01
 2.01683e-01
 2.22143e-01
 2.42603e-01
 2.67144e-01
 2.87501e-01
 3.07858e-01
 3.28216e-01
 3.48573e-01
 3.68930e-01
 3.89287e-01
 4.09644e-01
 4.30001e-01
 4.50358e-01
 4.70715e-01
 4.91072e-01
 5.11429e-01
 5.31786e-01
 5.52144e-01
 5.72501e-01
 5.92858e-01
 6.13215e-01
 6.33572e-01
 6.53929e-01
 6.74286e-01
 6.94643e-01
 7.15000e-01
 7.35358e-01
 7.55715e-01
 7.76072e-01
 7.96429e-01
 8.16786e-01
 8.37143e-01
 8.57500e-01
 8.77857e-01
 8.98214e-01
 9.18572e-01
 9.38929e-01
 9.59286e-01
 9.79643e-01
 1.00000e+00
)


51
(
 1.00000e-60
 1.30574e-02
 3.16127e-02
 4.90674e-02
 6.93330e-02
 8.72734e-02
 9.77634e-02
 1.17911e-01
 1.38331e-01
 1.58834e-01
 1.79343e-01
 1.99851e-01
 2.20358e-01
 2.40863e-01
 2.65859e-01
 2.86252e-01
 3.06644e-01
 3.27037e-01
 3.47430e-01
 3.67823e-01
 3.88215e-01
 4.08608e-01
 4.29001e-01
 4.49394e-01
 4.69787e-01
 4.90179e-01
 5.10572e-01
 5.30965e-01
 5.51358e-01
 5.71751e-01
 5.92144e-01
 6.12536e-01
 6.32929e-01
 6.53322e-01
 6.73715e-01
 6.94108e-01
 7.14500e-01
 7.34893e-01
 7.55286e-01
 7.75679e-01
 7.96072e-01
 8.16465e-01
 8.36857e-01
 8.57250e-01
 8.77643e-01
 8.98036e-01
 9.18429e-01
 9.38822e-01
 9.59214e-01
 9.79607e-01
 1.00000e+00
)


51
(
 1.00000e-60
 1.24836e-02
 3.03702e-02
 4.72288e-02
 6.74871e-02
 8.57050e-02
 9.59052e-02
 1.16030e-01
 1.36361e-01
 1.56910e-01
 1.77465e-01
 1.98020e-01
 2.18572e-01
 2.39123e-01
 2.64573e-01
 2.85002e-01
 3.05430e-01
 3.25859e-01
 3.46287e-01
 3.66716e-01
 3.87144e-01
 4.07573e-01
 4.28001e-01
 4.48430e-01
 4.68858e-01
 4.89287e-01
 5.09715e-01
 5.30144e-01
 5.50572e-01
 5.71001e-01
 5.91429e-01
 6.11858e-01
 6.32286e-01
 6.52715e-01
 6.73143e-01
 6.93572e-01
 7.14001e-01
 7.34429e-01
 7.54858e-01
 7.75286e-01
 7.95715e-01
 8.16143e-01
 8.36572e-01
 8.57000e-01
 8.77429e-01
 8.97857e-01
 9.18286e-01
 9.38714e-01
 9.59143e-01
 9.79571e-01
 1.00000e+00
)


51
(
 1.00000e-60
 1.19119e-02
 2.90894e-02
 4.53311e-02
 6.55664e-02
 8.40868e-02
 9.40594e-02
 1.14178e-01
 1.34476e-01
 1.54986e-01
 1.75587e-01
 1.96188e-01
 2.16786e-01
 2.37384e-01
 2.63288e-01
 2.83752e-01
 3.04216e-01
 3.24680e-01
 3.45144e-01
 3.65609e-01
 3.86073e-01
 4.06537e-01
 4.27001e-01
 4.47465e-01
 4.67930e-01
 4.88394e-01
 5.08858e-01
 5.29322e-01
 5.49787e-01
 5.70251e-01
 5.90715e-01
 6.11179e-01
 6.31644e-01
 6.52108e-01
 6.72572e-01
 6.93036e-01
 7.13501e-01
 7.33965e-01
 7.54429e-01
 7.74893e-01
 7.95358e-01
 8.15822e-01
 8.36286e-01
 8.56750e-01
 8.77215e-01
 8.97679e-01
 9.18143e-01
 9.38607e-01
 9.59071e-01
 9.79536e-01
 1.00000e+00
)


51
(
 1.00000e-60
 1.13468e-02
 2.77829e-02
 4.33926e-02
 6.35862e-02
 8.24244e-02
 9.22382e-02
 1.12348e-01
 1.32637e-01
 1.53062e-01
 1.73709e-01
 1.94356e-01
 2.15001e-01
 2.35644e-01
 2.62002e-01
 2.82502e-01
 3.03002e-01
 3.23502e-01
 3.44002e-01
 3.64502e-01
 3.85001e-01
 4.05501e-01
 4.26001e-01
 4.46501e-01
 4.67001e-01
 4.87501e-01
 5.08001e-01
 5.28501e-01
 5.49001e-01
 5.69501e-01
 5.90001e-01
 6.10501e-01
 6.31001e-01
 6.51501e-01
 6.72001e-01
 6.92501e-01
 7.13001e-01
 7.33501e-01
 7.54001e-01
 7.74500e-01
 7.95000e-01
 8.15500e-01
 8.36000e-01
 8.56500e-01
 8.77000e-01
 8.97500e-01
 9.18000e-01
 9.38500e-01
 9.59000e-01
 9.79500e-01
 1.00000e+00
)


51
(
 1.00000e-60
 1.07834e-02
 2.64632e-02
 4.14314e-02
 6.15617e-02
 8.07228e-02
 9.04270e-02
 1.10535e-01
 1.30824e-01
 1.51236e-01
 1.71832e-01
 1.92525e-01
 2.13215e-01
 2.33904e-01
 2.60717e-01
 2.81252e-01
 3.01788e-01
 3.22323e-01
 3.42859e-01
 3.63395e-01
 3.83930e-01
 4.04466e-01
 4.25001e-01
 4.45537e-01
 4.66073e-01
 4.86608e-01
 5.07144e-01
 5.27680e-01
 5.48215e-01
 5.68751e-01
 5.89287e-01
 6.09822e-01
 6.30358e-01
 6.50894e-01
 6.71429e-01
 6.91965e-01
 7.12501e-01
 7.33036e-01
 7.53572e-01
 7.74108e-01
 7.94643e-01
 8.15179e-01
 8.35715e-01
 8.56250e-01
 8.76786e-01
 8.97322e-01
 9.17857e-01
 9.38393e-01
 9.58929e-01
 9.79464e-01
 1.00000e+00
)


51
(
 1.00000e-60
 1.02233e-02
 2.51431e-02
 3.94659e-02
 5.95084e-02
 7.89876e-02
 8.86391e-02
 1.08730e-01
 1.29025e-01
 1.49439e-01
 1.69954e-01
 1.90693e-01
 2.11429e-01
 2.32164e-01
 2.59431e-01
 2.80002e-01
 3.00574e-01
 3.21145e-01
 3.41716e-01
 3.62288e-01
 3.82859e-01
 4.03430e-01
 4.24002e-01
 4.44573e-01
 4.65144e-01
 4.85716e-01
 5.06287e-01
 5.26858e-01
 5.47430e-01
 5.68001e-01
 5.88572e-01
 6.09144e-01
 6.29715e-01
 6.50287e-01
 6.70858e-01
 6.91429e-01
 7.12001e-01
 7.32572e-01
 7.53143e-01
 7.73715e-01
 7.94286e-01
 8.14858e-01
 8.35429e-01
 8.56000e-01
 8.76572e-01
 8.97143e-01
 9.17714e-01
 9.38286e-01
 9.58857e-01
 9.79429e-01
 1.00000e+00
)


51
(
 1.00000e-60
 9.67031e-03
 2.38350e-02
 3.75142e-02
 5.74414e-02
 7.72238e-02
 8.68513e-02
 1.06949e-01
 1.27251e-01
 1.47665e-01
 1.68179e-01
 1.88861e-01
 2.09644e-01
 2.30425e-01
 2.58145e-01
 2.78752e-01
 2.99359e-01
 3.19966e-01
 3.40573e-01
 3.61181e-01
 3.81788e-01
 4.02395e-01
 4.23002e-01
 4.43609e-01
 4.64216e-01
 4.84823e-01
 5.05430e-01
 5.26037e-01
 5.46644e-01
 5.67251e-01
 5.87858e-01
 6.08465e-01
 6.29072e-01
 6.49679e-01
 6.70287e-01
 6.90894e-01
 7.11501e-01
 7.32108e-01
 7.52715e-01
 7.73322e-01
 7.93929e-01
 8.14536e-01
 8.35143e-01
 8.55750e-01
 8.76357e-01
 8.96965e-01
 9.17572e-01
 9.38179e-01
 9.58786e-01
 9.79393e-01
 1.00000e+00
)


51
(
 1.00000e-60
 9.12505e-03
 2.25517e-02
 3.55946e-02
 5.53761e-02
 7.54370e-02
 8.50855e-02
 1.05176e-01
 1.25477e-01
 1.45899e-01
 1.66424e-01
 1.87029e-01
 2.07858e-01
 2.28685e-01
 2.56860e-01
 2.77503e-01
 2.98145e-01
 3.18788e-01
 3.39431e-01
 3.60073e-01
 3.80716e-01
 4.01359e-01
 4.22002e-01
 4.42645e-01
 4.63287e-01
 4.83930e-01
 5.04573e-01
 5.25216e-01
 5.45858e-01
 5.66501e-01
 5.87144e-01
 6.07787e-01
 6.28430e-01
 6.49072e-01
 6.69715e-01
 6.90358e-01
 7.11001e-01
 7.31644e-01
 7.52286e-01
 7.72929e-01
 7.93572e-01
 8.14215e-01
 8.34858e-01
 8.55500e-01
 8.76143e-01
 8.96786e-01
 9.17429e-01
 9.38072e-01
 9.58714e-01
 9.79357e-01
 1.00000e+00
)


51
(
 1.00000e-60
 8.58473e-03
 2.13056e-02
 3.37253e-02
 5.33279e-02
 7.36323e-02
 8.33229e-02
 1.03422e-01
 1.23725e-01
 1.44166e-01
 1.64690e-01
 1.85305e-01
 2.06072e-01
 2.26945e-01
 2.55574e-01
 2.76253e-01
 2.96931e-01
 3.17610e-01
 3.38288e-01
 3.58966e-01
 3.79645e-01
 4.00323e-01
 4.21002e-01
 4.41680e-01
 4.62359e-01
 4.83037e-01
 5.03716e-01
 5.24394e-01
 5.45073e-01
 5.65751e-01
 5.86430e-01
 6.07108e-01
 6.27787e-01
 6.48465e-01
 6.69144e-01
 6.89822e-01
 7.10501e-01
 7.31179e-01
 7.51858e-01
 7.72536e-01
 7.93215e-01
 8.13893e-01
 8.34572e-01
 8.55250e-01
 8.75929e-01
 8.96607e-01
 9.17286e-01
 9.37964e-01
 9.58643e-01
 9.79321e-01
 1.00000e+00
)


51
(
 1.00000e-60
 8.05888e-03
 2.01093e-02
 3.19246e-02
 5.13120e-02
 7.18150e-02
 8.15604e-02
 1.01668e-01
 1.21986e-01
 1.42437e-01
 1.62970e-01
 1.83597e-01
 2.04301e-01
 2.25205e-01
 2.54289e-01
 2.75003e-01
 2.95717e-01
 3.16431e-01
 3.37145e-01
 3.57859e-01
 3.78574e-01
 3.99288e-01
 4.20002e-01
 4.40716e-01
 4.61430e-01
 4.82145e-01
 5.02859e-01
 5.23573e-01
 5.44287e-01
 5.65001e-01
 5.85716e-01
 6.06430e-01
 6.27144e-01
 6.47858e-01
 6.68572e-01
 6.89287e-01
 7.10001e-01
 7.30715e-01
 7.51429e-01
 7.72144e-01
 7.92858e-01
 8.13572e-01
 8.34286e-01
 8.55000e-01
 8.75715e-01
 8.96429e-01
 9.17143e-01
 9.37857e-01
 9.58572e-01
 9.79286e-01
 1.00000e+00
)


51
(
 1.00000e-60
 7.53889e-03
 1.89756e-02
 3.02106e-02
 4.93436e-02
 6.99906e-02
 7.98277e-02
 1.02898e-01
 1.22386e-01
 1.40858e-01
 1.63963e-01
 1.83731e-01
 2.02632e-01
 2.23466e-01
 2.53003e-01
 2.73753e-01
 2.94503e-01
 3.15253e-01
 3.36003e-01
 3.56752e-01
 3.77502e-01
 3.98252e-01
 4.19002e-01
 4.39752e-01
 4.60502e-01
 4.81252e-01
 5.02002e-01
 5.22752e-01
 5.43502e-01
 5.64251e-01
 5.85001e-01
 6.05751e-01
 6.26501e-01
 6.47251e-01
 6.68001e-01
 6.88751e-01
 7.09501e-01
 7.30251e-01
 7.51001e-01
 7.71751e-01
 7.92501e-01
 8.13251e-01
 8.34001e-01
 8.54750e-01
 8.75500e-01
 8.96250e-01
 9.17000e-01
 9.37750e-01
 9.58500e-01
 9.79250e-01
 1.00000e+00
)


51
(
 1.00000e-60
 7.02909e-03
 1.79169e-02
 2.86018e-02
 4.74383e-02
 6.81642e-02
 7.80971e-02
 1.05115e-01
 1.25680e-01
 1.46006e-01
 1.67302e-01
 1.87883e-01
 2.07528e-01
 2.28256e-01
 2.51718e-01
 2.72503e-01
 2.93289e-01
 3.14074e-01
 3.34860e-01
 3.55645e-01
 3.76431e-01
 3.97217e-01
 4.18002e-01
 4.38788e-01
 4.59573e-01
 4.80359e-01
 5.01145e-01
 5.21930e-01
 5.42716e-01
 5.63501e-01
 5.84287e-01
 6.05073e-01
 6.25858e-01
 6.46644e-01
 6.67430e-01
 6.88215e-01
 7.09001e-01
 7.29787e-01
 7.50572e-01
 7.71358e-01
 7.92144e-01
 8.12929e-01
 8.33715e-01
 8.54501e-01
 8.75286e-01
 8.96072e-01
 9.16857e-01
 9.37643e-01
 9.58429e-01
 9.79214e-01
 1.00000e+00
)


51
(
 1.00000e-60
 6.53459e-03
 1.69459e-02
 2.71161e-02
 4.56111e-02
 6.63412e-02
 8.06792e-02
 9.93323e-02
 1.19128e-01
 1.40324e-01
 1.65316e-01
 1.86186e-01
 2.07052e-01
 2.27917e-01
 2.48782e-01
 2.64113e-01
 2.86393e-01
 3.08034e-01
 3.32246e-01
 3.53112e-01
 3.73979e-01
 3.94846e-01
 4.15713e-01
 4.36580e-01
 4.57447e-01
 4.78314e-01
 4.99181e-01
 5.20049e-01
 5.40916e-01
 5.61783e-01
 5.82651e-01
 6.03518e-01
 6.24385e-01
 6.45253e-01
 6.66120e-01
 6.86988e-01
 7.07855e-01
 7.28723e-01
 7.49590e-01
 7.70458e-01
 7.91325e-01
 8.12193e-01
 8.33060e-01
 8.53928e-01
 8.74795e-01
 8.95663e-01
 9.16530e-01
 9.37397e-01
 9.58265e-01
 9.79132e-01
 1.00000e+00
)


51
(
 1.00000e-60
 6.06153e-03
 1.60752e-02
 2.57720e-02
 4.38775e-02
 6.45268e-02
 7.65726e-02
 9.80056e-02
 1.18890e-01
 1.39841e-01
 1.60811e-01
 1.81788e-01
 1.99966e-01
 2.19915e-01
 2.44726e-01
 2.62237e-01
 2.84533e-01
 3.05861e-01
 3.26987e-01
 3.48051e-01
 3.69093e-01
 3.90127e-01
 4.11159e-01
 4.32189e-01
 4.53220e-01
 4.74250e-01
 4.95280e-01
 5.16310e-01
 5.37340e-01
 5.58370e-01
 5.79400e-01
 6.00430e-01
 6.21460e-01
 6.42490e-01
 6.63520e-01
 6.84550e-01
 7.05580e-01
 7.26610e-01
 7.47640e-01
 7.68670e-01
 7.89700e-01
 8.10730e-01
 8.31760e-01
 8.52790e-01
 8.73820e-01
 8.94850e-01
 9.15880e-01
 9.36910e-01
 9.57940e-01
 9.78970e-01
 1.00000e+00
)


51
(
 1.00000e-60
 5.60172e-03
 1.52706e-02
 2.45178e-02
 4.21852e-02
 6.27140e-02
 7.72624e-02
 9.69772e-02
 1.17949e-01
 1.39051e-01
 1.60136e-01
 1.78162e-01
 2.02216e-01
 2.23232e-01
 2.44239e-01
 2.59323e-01
 2.86240e-01
 3.07237e-01
 3.28233e-01
 3.49228e-01
 3.70222e-01
 3.91216e-01
 4.12209e-01
 4.33203e-01
 4.54196e-01
 4.75189e-01
 4.96182e-01
 5.17174e-01
 5.38167e-01
 5.59160e-01
 5.80152e-01
 6.01145e-01
 6.22137e-01
 6.43130e-01
 6.64122e-01
 6.85115e-01
 7.06107e-01
 7.27099e-01
 7.48092e-01
 7.69084e-01
 7.90077e-01
 8.11069e-01
 8.32061e-01
 8.53054e-01
 8.74046e-01
 8.95038e-01
 9.16031e-01
 9.37023e-01
 9.58015e-01
 9.79008e-01
 1.00000e+00
)


51
(
 1.00000e-60
 5.14191e-03
 1.44403e-02
 2.32159e-02
 4.04018e-02
 6.08768e-02
 7.85504e-02
 9.21596e-02
 1.19364e-01
 1.40988e-01
 1.62034e-01
 1.83033e-01
 2.02178e-01
 2.24973e-01
 2.37382e-01
 2.64238e-01
 2.86486e-01
 3.07781e-01
 3.28861e-01
 3.49871e-01
 3.70856e-01
 3.91833e-01
 4.12806e-01
 4.33779e-01
 4.54750e-01
 4.75722e-01
 4.96693e-01
 5.17665e-01
 5.38636e-01
 5.59607e-01
 5.80578e-01
 6.01550e-01
 6.22521e-01
 6.43492e-01
 6.64463e-01
 6.85434e-01
 7.06405e-01
 7.27376e-01
 7.48347e-01
 7.69318e-01
 7.90289e-01
 8.11261e-01
 8.32232e-01
 8.53203e-01
 8.74174e-01
 8.95145e-01
 9.16116e-01
 9.37087e-01
 9.58058e-01
 9.79029e-01
 1.00000e+00
)


51
(
 1.00000e-60
 4.73098e-03
 1.35862e-02
 2.18705e-02
 3.85343e-02
 5.90124e-02
 7.87964e-02
 9.59671e-02
 1.14437e-01
 1.31999e-01
 1.53723e-01
 1.76341e-01
 1.95675e-01
 2.18096e-01
 2.38080e-01
 2.60224e-01
 2.81335e-01
 3.02457e-01
 3.23587e-01
 3.44720e-01
 3.65855e-01
 3.86991e-01
 4.08128e-01
 4.29265e-01
 4.50403e-01
 4.71541e-01
 4.92679e-01
 5.13817e-01
 5.34955e-01
 5.56093e-01
 5.77231e-01
 5.98370e-01
 6.19508e-01
 6.40646e-01
 6.61785e-01
 6.82923e-01
 7.04061e-01
 7.25200e-01
 7.46338e-01
 7.67477e-01
 7.88615e-01
 8.09754e-01
 8.30892e-01
 8.52031e-01
 8.73169e-01
 8.94308e-01
 9.15446e-01
 9.36585e-01
 9.57723e-01
 9.78862e-01
 1.00000e+00
)


51
(
 1.00000e-60
 4.33005e-03
 1.27141e-02
 2.04909e-02
 3.65947e-02
 5.71184e-02
 7.71057e-02
 9.78396e-02
 1.18742e-01
 1.39699e-01
 1.53109e-01
 1.72798e-01
 1.93091e-01
 2.14391e-01
 2.35851e-01
 2.57092e-01
 2.78324e-01
 2.99553e-01
 3.20780e-01
 3.42006e-01
 3.63231e-01
 3.84457e-01
 4.05683e-01
 4.26909e-01
 4.48134e-01
 4.69360e-01
 4.90585e-01
 5.11811e-01
 5.33037e-01
 5.54262e-01
 5.75488e-01
 5.96713e-01
 6.17939e-01
 6.39165e-01
 6.60390e-01
 6.81616e-01
 7.02842e-01
 7.24067e-01
 7.45293e-01
 7.66518e-01
 7.87744e-01
 8.08970e-01
 8.30195e-01
 8.51421e-01
 8.72646e-01
 8.93872e-01
 9.15098e-01
 9.36323e-01
 9.57549e-01
 9.78774e-01
 1.00000e+00
)


51
(
 1.00000e-60
 3.92913e-03
 1.18294e-02
 1.90864e-02
 3.45950e-02
 5.51929e-02
 7.54092e-02
 9.61724e-02
 1.17110e-01
 1.38105e-01
 1.56024e-01
 1.76518e-01
 1.97156e-01
 2.17995e-01
 2.38588e-01
 2.59552e-01
 2.80618e-01
 3.01737e-01
 3.22880e-01
 3.44033e-01
 3.65190e-01
 3.86349e-01
 4.07508e-01
 4.28668e-01
 4.49829e-01
 4.70989e-01
 4.92149e-01
 5.13310e-01
 5.34470e-01
 5.55630e-01
 5.76791e-01
 5.97951e-01
 6.19112e-01
 6.40272e-01
 6.61432e-01
 6.82593e-01
 7.03753e-01
 7.24914e-01
 7.46074e-01
 7.67235e-01
 7.88395e-01
 8.09556e-01
 8.30716e-01
 8.51877e-01
 8.73037e-01
 8.94198e-01
 9.15358e-01
 9.36519e-01
 9.57679e-01
 9.78840e-01
 1.00000e+00
)


51
(
 1.00000e-60
 3.52821e-03
 1.09377e-02
 1.76662e-02
 3.25470e-02
 5.32336e-02
 7.37147e-02
 9.45094e-02
 1.15484e-01
 1.36516e-01
 1.57567e-01
 1.78625e-01
 1.99684e-01
 2.20744e-01
 2.41805e-01
 2.62866e-01
 2.83927e-01
 3.04988e-01
 3.26048e-01
 3.47109e-01
 3.68170e-01
 3.89231e-01
 4.10292e-01
 4.31353e-01
 4.52414e-01
 4.73475e-01
 4.94536e-01
 5.15597e-01
 5.36658e-01
 5.57719e-01
 5.78780e-01
 5.99841e-01
 6.20902e-01
 6.41963e-01
 6.63024e-01
 6.84085e-01
 7.05146e-01
 7.26207e-01
 7.47268e-01
 7.68329e-01
 7.89390e-01
 8.10451e-01
 8.31512e-01
 8.52573e-01
 8.73634e-01
 8.94695e-01
 9.15756e-01
 9.36817e-01
 9.57878e-01
 9.78939e-01
 1.00000e+00
)


51
(
 1.00000e-60
 3.17756e-03
 1.00444e-02
 1.62396e-02
 3.04628e-02
 5.12383e-02
 7.20369e-02
 9.28600e-02
 1.13869e-01
 1.34939e-01
 1.56028e-01
 1.77124e-01
 1.98222e-01
 2.19321e-01
 2.40420e-01
 2.61519e-01
 2.82618e-01
 3.03718e-01
 3.24817e-01
 3.45917e-01
 3.67016e-01
 3.88115e-01
 4.09215e-01
 4.30314e-01
 4.51414e-01
 4.72513e-01
 4.93613e-01
 5.14712e-01
 5.35811e-01
 5.56911e-01
 5.78010e-01
 5.99110e-01
 6.20209e-01
 6.41309e-01
 6.62408e-01
 6.83508e-01
 7.04607e-01
 7.25707e-01
 7.46806e-01
 7.67906e-01
 7.89005e-01
 8.10105e-01
 8.31204e-01
 8.52304e-01
 8.73403e-01
 8.94503e-01
 9.15602e-01
 9.36702e-01
 9.57801e-01
 9.78901e-01
 1.00000e+00
)


51
(
 1.00000e-60
 2.84014e-03
 9.15526e-03
 1.48160e-02
 2.83543e-02
 4.92049e-02
 7.03590e-02
 9.12105e-02
 1.12256e-01
 1.33364e-01
 1.54491e-01
 1.75625e-01
 1.96761e-01
 2.17899e-01
 2.39036e-01
 2.60174e-01
 2.81312e-01
 3.02449e-01
 3.23587e-01
 3.44725e-01
 3.65863e-01
 3.87001e-01
 4.08139e-01
 4.29276e-01
 4.50414e-01
 4.71552e-01
 4.92690e-01
 5.13828e-01
 5.34966e-01
 5.56104e-01
 5.77242e-01
 5.98380e-01
 6.19517e-01
 6.40655e-01
 6.61793e-01
 6.82931e-01
 7.04069e-01
 7.25207e-01
 7.46345e-01
 7.67483e-01
 7.88621e-01
 8.09759e-01
 8.30897e-01
 8.52035e-01
 8.73173e-01
 8.94310e-01
 9.15448e-01
 9.36586e-01
 9.57724e-01
 9.78862e-01
 1.00000e+00
)


51
(
 1.00000e-60
 2.50273e-03
 8.27568e-03
 1.34045e-02
 2.62335e-02
 4.71312e-02
 6.87064e-02
 8.95898e-02
 1.10670e-01
 1.31814e-01
 1.52979e-01
 1.74151e-01
 1.95325e-01
 2.16500e-01
 2.37675e-01
 2.58851e-01
 2.80026e-01
 3.01202e-01
 3.22377e-01
 3.43553e-01
 3.64729e-01
 3.85904e-01
 4.07080e-01
 4.28256e-01
 4.49431e-01
 4.70607e-01
 4.91783e-01
 5.12958e-01
 5.34134e-01
 5.55310e-01
 5.76486e-01
 5.97661e-01
 6.18837e-01
 6.40013e-01
 6.61188e-01
 6.82364e-01
 7.03540e-01
 7.24716e-01
 7.45891e-01
 7.67067e-01
 7.88243e-01
 8.09418e-01
 8.30594e-01
 8.51770e-01
 8.72946e-01
 8.94121e-01
 9.15297e-01
 9.36473e-01
 9.57649e-01
 9.78824e-01
 1.00000e+00
)


51
(
 1.00000e-60
 2.21617e-03
 7.41125e-03
 1.20145e-02
 2.41124e-02
 4.50151e-02
 6.70685e-02
 8.79832e-02
 1.09099e-01
 1.30280e-01
 1.51482e-01
 1.72691e-01
 1.93902e-01
 2.15114e-01
 2.36327e-01
 2.57540e-01
 2.78753e-01
 2.99966e-01
 3.21179e-01
 3.42392e-01
 3.63605e-01
 3.84818e-01
 4.06032e-01
 4.27245e-01
 4.48458e-01
 4.69671e-01
 4.90884e-01
 5.12097e-01
 5.33310e-01
 5.54524e-01
 5.75737e-01
 5.96950e-01
 6.18163e-01
 6.39376e-01
 6.60589e-01
 6.81802e-01
 7.03016e-01
 7.24229e-01
 7.45442e-01
 7.66655e-01
 7.87868e-01
 8.09081e-01
 8.30295e-01
 8.51508e-01
 8.72721e-01
 8.93934e-01
 9.15147e-01
 9.36360e-01
 9.57574e-01
 9.78787e-01
 1.00000e+00
)


51
(
 1.00000e-60
 1.93343e-03
 6.56749e-03
 1.06552e-02
 2.20029e-02
 4.28543e-02
 6.54556e-02
 8.64017e-02
 1.07552e-01
 1.28769e-01
 1.50008e-01
 1.71253e-01
 1.92502e-01
 2.13751e-01
 2.35000e-01
 2.56250e-01
 2.77500e-01
 2.98750e-01
 3.20000e-01
 3.41250e-01
 3.62500e-01
 3.83750e-01
 4.05000e-01
 4.26250e-01
 4.47500e-01
 4.68750e-01
 4.90000e-01
 5.11250e-01
 5.32500e-01
 5.53750e-01
 5.75000e-01
 5.96250e-01
 6.17500e-01
 6.38750e-01
 6.60000e-01
 6.81250e-01
 7.02500e-01
 7.23750e-01
 7.45000e-01
 7.66250e-01
 7.87500e-01
 8.08750e-01
 8.30000e-01
 8.51250e-01
 8.72500e-01
 8.93750e-01
 9.15000e-01
 9.36250e-01
 9.57500e-01
 9.78750e-01
 1.00000e+00
)


51
(
 1.00000e-60
 1.65069e-03
 5.74996e-03
 9.33598e-03
 1.99170e-02
 4.06468e-02
 6.38698e-02
 8.48413e-02
 1.06025e-01
 1.27277e-01
 1.48551e-01
 1.69833e-01
 1.91118e-01
 2.12404e-01
 2.33690e-01
 2.54976e-01
 2.76262e-01
 2.97548e-01
 3.18835e-01
 3.40121e-01
 3.61407e-01
 3.82694e-01
 4.03980e-01
 4.25267e-01
 4.46553e-01
 4.67839e-01
 4.89126e-01
 5.10412e-01
 5.31699e-01
 5.52985e-01
 5.74271e-01
 5.95558e-01
 6.16844e-01
 6.38131e-01
 6.59417e-01
 6.80704e-01
 7.01990e-01
 7.23276e-01
 7.44563e-01
 7.65849e-01
 7.87136e-01
 8.08422e-01
 8.29709e-01
 8.50995e-01
 8.72281e-01
 8.93568e-01
 9.14854e-01
 9.36141e-01
 9.57427e-01
 9.78714e-01
 1.00000e+00
)


51
(
 1.00000e-60
 1.42068e-03
 4.96420e-03
 8.06604e-03
 1.78666e-02
 3.83904e-02
 6.23132e-02
 8.33155e-02
 1.04533e-01
 1.25820e-01
 1.47129e-01
 1.68447e-01
 1.89767e-01
 2.11088e-01
 2.32410e-01
 2.53731e-01
 2.75053e-01
 2.96375e-01
 3.17697e-01
 3.39019e-01
 3.60341e-01
 3.81663e-01
 4.02985e-01
 4.24307e-01
 4.45629e-01
 4.66951e-01
 4.88272e-01
 5.09594e-01
 5.30916e-01
 5.52238e-01
 5.73560e-01
 5.94882e-01
 6.16204e-01
 6.37526e-01
 6.58848e-01
 6.80170e-01
 7.01492e-01
 7.22814e-01
 7.44136e-01
 7.65458e-01
 7.86780e-01
 8.08102e-01
 8.29424e-01
 8.50746e-01
 8.72068e-01
 8.93390e-01
 9.14712e-01
 9.36034e-01
 9.57356e-01
 9.78678e-01
 1.00000e+00
)


51
(
 1.00000e-60
 1.19346e-03
 4.21574e-03
 6.85467e-03
 1.58637e-02
 3.60829e-02
 6.07141e-02
 8.17247e-02
 1.02970e-01
 1.24292e-01
 1.45638e-01
 1.66992e-01
 1.88350e-01
 2.09708e-01
 2.31067e-01
 2.52426e-01
 2.73785e-01
 2.95144e-01
 3.16504e-01
 3.37863e-01
 3.59222e-01
 3.80581e-01
 4.01941e-01
 4.23300e-01
 4.44659e-01
 4.66018e-01
 4.87378e-01
 5.08737e-01
 5.30096e-01
 5.51455e-01
 5.72815e-01
 5.94174e-01
 6.15533e-01
 6.36892e-01
 6.58252e-01
 6.79611e-01
 7.00970e-01
 7.22329e-01
 7.43689e-01
 7.65048e-01
 7.86407e-01
 8.07767e-01
 8.29126e-01
 8.50485e-01
 8.71844e-01
 8.93204e-01
 9.14563e-01
 9.35922e-01
 9.57281e-01
 9.78641e-01
 1.00000e+00
)


51
(
 1.00000e-60
 9.66232e-04
 3.51014e-03
 5.71117e-03
 1.39202e-02
 3.37221e-02
 5.91069e-02
 8.01700e-02
 1.01456e-01
 1.22815e-01
 1.44197e-01
 1.65587e-01
 1.86981e-01
 2.08375e-01
 2.29770e-01
 2.51165e-01
 2.72560e-01
 2.93955e-01
 3.15351e-01
 3.36746e-01
 3.58141e-01
 3.79536e-01
 4.00932e-01
 4.22327e-01
 4.43722e-01
 4.65117e-01
 4.86513e-01
 5.07908e-01
 5.29303e-01
 5.50699e-01
 5.72094e-01
 5.93489e-01
 6.14884e-01
 6.36280e-01
 6.57675e-01
 6.79070e-01
 7.00466e-01
 7.21861e-01
 7.43256e-01
 7.64652e-01
 7.86047e-01
 8.07442e-01
 8.28838e-01
 8.50233e-01
 8.71628e-01
 8.93023e-01
 9.14419e-01
 9.35814e-01
 9.57209e-01
 9.78605e-01
 1.00000e+00
)


51
(
 1.00000e-60
 7.69217e-04
 2.85293e-03
 4.64479e-03
 1.20482e-02
 3.13059e-02
 5.76579e-02
 7.87503e-02
 1.00068e-01
 1.21459e-01
 1.42874e-01
 1.64297e-01
 1.85724e-01
 2.07151e-01
 2.28579e-01
 2.50007e-01
 2.71435e-01
 2.92864e-01
 3.14292e-01
 3.35720e-01
 3.57149e-01
 3.78577e-01
 4.00005e-01
 4.21434e-01
 4.42862e-01
 4.64291e-01
 4.85719e-01
 5.07147e-01
 5.28576e-01
 5.50004e-01
 5.71432e-01
 5.92861e-01
 6.14289e-01
 6.35717e-01
 6.57146e-01
 6.78574e-01
 7.00003e-01
 7.21431e-01
 7.42859e-01
 7.64288e-01
 7.85716e-01
 8.07145e-01
 8.28573e-01
 8.50001e-01
 8.71430e-01
 8.92858e-01
 9.14286e-01
 9.35715e-01
 9.57143e-01
 9.78572e-01
 1.00000e+00
)


51
(
 1.00000e-60
 5.80183e-04
 2.24966e-03
 3.66484e-03
 1.02596e-02
 2.88321e-02
 5.62544e-02
 7.73737e-02
 9.87209e-02
 1.20143e-01
 1.41590e-01
 1.63045e-01
 1.84504e-01
 2.05963e-01
 2.27423e-01
 2.48883e-01
 2.70344e-01
 2.91804e-01
 3.13265e-01
 3.34725e-01
 3.56186e-01
 3.77646e-01
 3.99106e-01
 4.20567e-01
 4.42027e-01
 4.63488e-01
 4.84948e-01
 5.06409e-01
 5.27869e-01
 5.49330e-01
 5.70790e-01
 5.92251e-01
 6.13711e-01
 6.35172e-01
 6.56632e-01
 6.78093e-01
 6.99553e-01
 7.21014e-01
 7.42474e-01
 7.63935e-01
 7.85395e-01
 8.06856e-01
 8.28316e-01
 8.49777e-01
 8.71237e-01
 8.92698e-01
 9.14158e-01
 9.35619e-01
 9.57079e-01
 9.78540e-01
 1.00000e+00
)


51
(
 1.00000e-60
 3.87577e-04
 1.70586e-03
 2.78057e-03
 8.56638e-03
 2.62985e-02
 5.49022e-02
 7.60450e-02
 9.74211e-02
 1.18874e-01
 1.40351e-01
 1.61837e-01
 1.83326e-01
 2.04817e-01
 2.26308e-01
 2.47799e-01
 2.69291e-01
 2.90782e-01
 3.12273e-01
 3.33765e-01
 3.55256e-01
 3.76748e-01
 3.98239e-01
 4.19731e-01
 4.41222e-01
 4.62714e-01
 4.84205e-01
 5.05696e-01
 5.27188e-01
 5.48679e-01
 5.70171e-01
 5.91662e-01
 6.13154e-01
 6.34645e-01
 6.56137e-01
 6.77628e-01
 6.99119e-01
 7.20611e-01
 7.42102e-01
 7.63594e-01
 7.85085e-01
 8.06577e-01
 8.28068e-01
 8.49560e-01
 8.71051e-01
 8.92543e-01
 9.14034e-01
 9.35526e-01
 9.57017e-01
 9.78509e-01
 1.00000e+00
)


51
(
 1.00000e-60
 7.36836e-05
 1.22709e-03
 2.00128e-03
 6.98044e-03
 2.37031e-02
 5.36040e-02
 7.47716e-02
 9.61748e-02
 1.17656e-01
 1.39163e-01
 1.60678e-01
 1.82197e-01
 2.03718e-01
 2.25238e-01
 2.46759e-01
 2.68280e-01
 2.89802e-01
 3.11323e-01
 3.32844e-01
 3.54365e-01
 3.75886e-01
 3.97407e-01