/*--------------------------------*- C++ -*----------------------------------*\
| =========                 |                                                 |
| \      /  F ield          | OpenFOAM: The Open Source CFD Toolbox           |
|  \    /   O peration      | Version:  7                                     |
|   \  /    A nd            | Web:      http://www.OpenFOAM.com               |
|    \/     M anipulation   |                                                 |
\*---------------------------------------------------------------------------*/
FoamFile 
{   version     2.0;
    format      ascii;
    class       dictionary;
    location    "constant";
    object      LDMtable;
}
// * * * * * * * * * * * * * * * * * * * * * * * * * * * * * * * * * * * * * //

CO2_table
51
(

51
(
 1.00000e-60
 1.09669e-30
 1.29037e-15
 6.41769e-19
 1.39194e-12
 5.62604e-09
 6.14891e-30
 7.15386e-30
 8.48012e-30
 1.01810e-29
 1.19905e-29
 1.34848e-29
 1.38060e-29
 1.37259e-29
 1.34202e-29
 1.29413e-29
 1.24971e-29
 1.20103e-29
 1.15234e-29
 1.10220e-29
 1.05642e-29
 1.01682e-29
 9.75985e-30
 9.34152e-30
 8.93854e-30
 8.57342e-30
 8.22430e-30
 7.87915e-30
 7.54008e-30
 7.23354e-30
 6.98266e-30
 6.73697e-30
 6.45214e-30
 6.15702e-30
 5.83921e-30
 5.50605e-30
 5.15772e-30
 4.80116e-30
 4.43298e-30
 4.05818e-30
 3.68289e-30
 3.30894e-30
 2.93911e-30
 2.57140e-30
 2.20402e-30
 1.83658e-30
 1.47013e-30
 1.10399e-30
 7.37785e-31
 3.70796e-31
 1.00000e-60
)


51
(
 1.00000e-60
 1.43240e-04
 1.35518e-05
 1.08219e-05
 7.85184e-06
 1.63518e-05
 4.32865e-04
 4.25166e-04
 4.15928e-04
 4.06077e-04
 3.95730e-04
 3.84649e-04
 3.72996e-04
 3.61463e-04
 1.41634e-03
 1.37700e-03
 1.33765e-03
 1.29830e-03
 1.25896e-03
 1.21961e-03
 1.18027e-03
 1.14092e-03
 1.10158e-03
 1.06223e-03
 1.02289e-03
 9.83548e-04
 9.44205e-04
 9.04863e-04
 8.65520e-04
 8.26178e-04
 7.86836e-04
 7.47493e-04
 7.08152e-04
 6.68809e-04
 6.29467e-04
 5.90125e-04
 5.50784e-04
 5.11442e-04
 4.72100e-04
 4.32758e-04
 3.93416e-04
 3.54075e-04
 3.14733e-04
 2.75391e-04
 2.36050e-04
 1.96708e-04
 1.57366e-04
 1.18025e-04
 7.86832e-05
 3.93416e-05
 1.00000e-60
)


51
(
 1.00000e-60
 2.86480e-04
 1.40400e-04
 1.12387e-04
 8.12526e-05
 7.77184e-05
 8.65730e-04
 8.50332e-04
 8.31857e-04
 8.12155e-04
 7.91460e-04
 7.69298e-04
 7.45992e-04
 7.22925e-04
 2.83269e-03
 2.75399e-03
 2.67530e-03
 2.59660e-03
 2.51791e-03
 2.43922e-03
 2.36053e-03
 2.28184e-03
 2.20316e-03
 2.12447e-03
 2.04578e-03
 1.96710e-03
 1.88841e-03
 1.80973e-03
 1.73104e-03
 1.65236e-03
 1.57367e-03
 1.49499e-03
 1.41630e-03
 1.33762e-03
 1.25893e-03
 1.18025e-03
 1.10157e-03
 1.02288e-03
 9.44200e-04
 8.65516e-04
 7.86833e-04
 7.08149e-04
 6.29466e-04
 5.50783e-04
 4.72099e-04
 3.93416e-04
 3.14733e-04
 2.36050e-04
 1.57366e-04
 7.86832e-05
 1.00000e-60
)


51
(
 1.00000e-60
 4.29721e-04
 3.96004e-04
 3.17770e-04
 2.29387e-04
 1.86556e-04
 1.29859e-03
 1.27550e-03
 1.24778e-03
 1.21823e-03
 1.18719e-03
 1.15395e-03
 1.11899e-03
 1.08439e-03
 4.24903e-03
 4.13099e-03
 4.01295e-03
 3.89491e-03
 3.77687e-03
 3.65883e-03
 3.54080e-03
 3.42277e-03
 3.30473e-03
 3.18670e-03
 3.06867e-03
 2.95064e-03
 2.83262e-03
 2.71459e-03
 2.59656e-03
 2.47853e-03
 2.36051e-03
 2.24248e-03
 2.12445e-03
 2.00643e-03
 1.88840e-03
 1.77038e-03
 1.65235e-03
 1.53433e-03
 1.41630e-03
 1.29827e-03
 1.18025e-03
 1.06222e-03
 9.44199e-04
 8.26174e-04
 7.08149e-04
 5.90124e-04
 4.72099e-04
 3.54075e-04
 2.36050e-04
 1.18025e-04
 1.00000e-60
)


51
(
 1.00000e-60
 5.72961e-04
 7.74639e-04
 6.23168e-04
 4.49228e-04
 3.41150e-04
 1.73146e-03
 1.70066e-03
 1.66371e-03
 1.62431e-03
 1.58292e-03
 1.53860e-03
 1.49198e-03
 1.44585e-03
 5.66537e-03
 5.50799e-03
 5.35060e-03
 5.19321e-03
 5.03582e-03
 4.87844e-03
 4.72107e-03
 4.56369e-03
 4.40631e-03
 4.24894e-03
 4.09156e-03
 3.93419e-03
 3.77682e-03
 3.61945e-03
 3.46208e-03
 3.30471e-03
 3.14734e-03
 2.98997e-03
 2.83261e-03
 2.67524e-03
 2.51787e-03
 2.36050e-03
 2.20313e-03
 2.04577e-03
 1.88840e-03
 1.73103e-03
 1.57367e-03
 1.41630e-03
 1.25893e-03
 1.10157e-03
 9.44199e-04
 7.86833e-04
 6.29466e-04
 4.72099e-04
 3.14733e-04
 1.57366e-04
 1.00000e-60
)


51
(
 1.00000e-60
 7.42303e-04
 1.27058e-03
 1.02478e-03
 7.37745e-04
 5.39781e-04
 2.16432e-03
 2.12583e-03
 2.07964e-03
 2.03039e-03
 1.97865e-03
 1.92324e-03
 1.86498e-03
 1.80731e-03
 7.08172e-03
 6.88498e-03
 6.68825e-03
 6.49151e-03
 6.29478e-03
 6.09805e-03
 5.90133e-03
 5.70461e-03
 5.50789e-03
 5.31117e-03
 5.11446e-03
 4.91774e-03
 4.72103e-03
 4.52431e-03
 4.32760e-03
 4.13089e-03
 3.93418e-03
 3.73747e-03
 3.54076e-03
 3.34405e-03
 3.14734e-03
 2.95063e-03
 2.75392e-03
 2.55721e-03
 2.36050e-03
 2.16379e-03
 1.96708e-03
 1.77037e-03
 1.57367e-03
 1.37696e-03
 1.18025e-03
 9.83541e-04
 7.86832e-04
 5.90124e-04
 3.93416e-04
 1.96708e-04
 1.00000e-60
)


51
(
 1.00000e-60
 9.72820e-04
 1.87812e-03
 1.51881e-03
 1.09191e-03
 7.80736e-04
 2.59719e-03
 2.55100e-03
 2.49557e-03
 2.43646e-03
 2.37438e-03
 2.30789e-03
 2.23797e-03
 2.16878e-03
 8.49806e-03
 8.26198e-03
 8.02589e-03
 7.78981e-03
 7.55374e-03
 7.31767e-03
 7.08160e-03
 6.84553e-03
 6.60947e-03
 6.37341e-03
 6.13735e-03
 5.90129e-03
 5.66523e-03
 5.42918e-03
 5.19312e-03
 4.95707e-03
 4.72101e-03
 4.48496e-03
 4.24891e-03
 4.01286e-03
 3.77680e-03
 3.54075e-03
 3.30470e-03
 3.06865e-03
 2.83260e-03
 2.59655e-03
 2.36050e-03
 2.12445e-03
 1.88840e-03
 1.65235e-03
 1.41630e-03
 1.18025e-03
 9.44199e-04
 7.08149e-04
 4.72099e-04
 2.36050e-04
 1.00000e-60
)


51
(
 1.00000e-60
 1.23705e-03
 2.59151e-03
 2.10145e-03
 1.50870e-03
 1.06230e-03
 3.03005e-03
 2.97616e-03
 2.91150e-03
 2.84254e-03
 2.77011e-03
 2.69254e-03
 2.61097e-03
 2.53024e-03
 9.91441e-03
 9.63897e-03
 9.36354e-03
 9.08812e-03
 8.81269e-03
 8.53728e-03
 8.26186e-03
 7.98645e-03
 7.71104e-03
 7.43564e-03
 7.16024e-03
 6.88484e-03
 6.60944e-03
 6.33404e-03
 6.05864e-03
 5.78325e-03
 5.50785e-03
 5.23245e-03
 4.95706e-03
 4.68167e-03
 4.40627e-03
 4.13088e-03
 3.85549e-03
 3.58009e-03
 3.30470e-03
 3.02931e-03
 2.75392e-03
 2.47852e-03
 2.20313e-03
 1.92774e-03
 1.65235e-03
 1.37696e-03
 1.10157e-03
 8.26174e-04
 5.50782e-04
 2.75391e-04
 1.00000e-60
)


51
(
 1.00000e-60
 1.52563e-03
 3.40505e-03
 2.76889e-03
 1.98508e-03
 1.38275e-03
 3.46292e-03
 3.40133e-03
 3.32743e-03
 3.24862e-03
 3.16584e-03
 3.07719e-03
 2.98397e-03
 2.89170e-03
 1.13307e-02
 1.10160e-02
 1.07012e-02
 1.03864e-02
 1.00716e-02
 9.75689e-03
 9.44213e-03
 9.12737e-03
 8.81262e-03
 8.49788e-03
 8.18313e-03
 7.86839e-03
 7.55364e-03
 7.23890e-03
 6.92416e-03
 6.60942e-03
 6.29468e-03
 5.97995e-03
 5.66521e-03
 5.35048e-03
 5.03574e-03
 4.72100e-03
 4.40627e-03
 4.09153e-03
 3.77680e-03
 3.46207e-03
 3.14733e-03
 2.83260e-03
 2.51786e-03
 2.20313e-03
 1.88840e-03
 1.57367e-03
 1.25893e-03
 9.44199e-04
 6.29466e-04
 3.14733e-04
 1.00000e-60
)


51
(
 1.00000e-60
 1.82470e-03
 4.31300e-03
 3.51735e-03
 2.51803e-03
 1.74037e-03
 3.91555e-03
 3.82649e-03
 3.74335e-03
 3.65470e-03
 3.56157e-03
 3.46184e-03
 3.35696e-03
 3.25316e-03
 1.27471e-02
 1.23930e-02
 1.20388e-02
 1.16847e-02
 1.13306e-02
 1.09765e-02
 1.06224e-02
 1.02683e-02
 9.91420e-03
 9.56011e-03
 9.20602e-03
 8.85193e-03
 8.49785e-03
 8.14376e-03
 7.78968e-03
 7.43560e-03
 7.08152e-03
 6.72744e-03
 6.37336e-03
 6.01928e-03
 5.66521e-03
 5.31113e-03
 4.95705e-03
 4.60298e-03
 4.24890e-03
 3.89482e-03
 3.54075e-03
 3.18667e-03
 2.83260e-03
 2.47852e-03
 2.12445e-03
 1.77037e-03
 1.41630e-03
 1.06222e-03
 7.08149e-04
 3.54074e-04
 1.00000e-60
)


51
(
 1.00000e-60
 2.12849e-03
 5.30965e-03
 4.34302e-03
 3.10451e-03
 2.13345e-03
 4.49856e-03
 4.25166e-03
 4.15928e-03
 4.06077e-03
 3.95730e-03
 3.84649e-03
 3.72996e-03
 3.61463e-03
 1.41634e-02
 1.37700e-02
 1.33765e-02
 1.29830e-02
 1.25896e-02
 1.21961e-02
 1.18027e-02
 1.14092e-02
 1.10158e-02
 1.06223e-02
 1.02289e-02
 9.83548e-03
 9.44205e-03
 9.04863e-03
 8.65520e-03
 8.26178e-03
 7.86836e-03
 7.47493e-03
 7.08152e-03
 6.68809e-03
 6.29467e-03
 5.90125e-03
 5.50784e-03
 5.11442e-03
 4.72100e-03
 4.32758e-03
 3.93416e-03
 3.54075e-03
 3.14733e-03
 2.75391e-03
 2.36050e-03
 1.96708e-03
 1.57366e-03
 1.18025e-03
 7.86832e-04
 3.93416e-04
 1.00000e-60
)


51
(
 1.00000e-60
 2.43218e-03
 6.38927e-03
 5.24209e-03
 3.74150e-03
 2.56027e-03
 5.16346e-03
 4.73892e-03
 4.57521e-03
 4.46685e-03
 4.35303e-03
 4.23114e-03
 4.10295e-03
 3.97609e-03
 1.55798e-02
 1.51470e-02
 1.47141e-02
 1.42813e-02
 1.38485e-02
 1.34157e-02
 1.29829e-02
 1.25501e-02
 1.21174e-02
 1.16846e-02
 1.12518e-02
 1.08190e-02
 1.03863e-02
 9.95349e-03
 9.52072e-03
 9.08796e-03
 8.65519e-03
 8.22243e-03
 7.78967e-03
 7.35690e-03
 6.92414e-03
 6.49138e-03
 6.05862e-03
 5.62586e-03
 5.19310e-03
 4.76034e-03
 4.32758e-03
 3.89482e-03
 3.46206e-03
 3.02931e-03
 2.59655e-03
 2.16379e-03
 1.73103e-03
 1.29827e-03
 8.65515e-04
 4.32758e-04
 1.00000e-60
)


51
(
 1.00000e-60
 2.73330e-03
 7.54614e-03
 6.21076e-03
 4.42596e-03
 3.01912e-03
 5.90416e-03
 5.32210e-03
 4.99114e-03
 4.87293e-03
 4.74876e-03
 4.61579e-03
 4.47595e-03
 4.33755e-03
 1.69961e-02
 1.65240e-02
 1.60518e-02
 1.55796e-02
 1.51075e-02
 1.46353e-02
 1.41632e-02
 1.36911e-02
 1.32189e-02
 1.27468e-02
 1.22747e-02
 1.18026e-02
 1.13305e-02
 1.08584e-02
 1.03862e-02
 9.91414e-03
 9.44203e-03
 8.96992e-03
 8.49782e-03
 8.02571e-03
 7.55361e-03
 7.08151e-03
 6.60940e-03
 6.13730e-03
 5.66520e-03
 5.19310e-03
 4.72100e-03
 4.24890e-03
 3.77680e-03
 3.30470e-03
 2.83260e-03
 2.36050e-03
 1.88840e-03
 1.41630e-03
 9.44199e-04
 4.72099e-04
 1.00000e-60
)


51
(
 1.00000e-60
 3.03295e-03
 8.77454e-03
 7.24524e-03
 5.15489e-03
 3.50827e-03
 6.67736e-03
 5.97983e-03
 5.49643e-03
 5.27900e-03
 5.14449e-03
 5.00044e-03
 4.84894e-03
 4.69902e-03
 1.84125e-02
 1.79010e-02
 1.73894e-02
 1.68779e-02
 1.63664e-02
 1.58549e-02
 1.53435e-02
 1.48320e-02
 1.43205e-02
 1.38090e-02
 1.32976e-02
 1.27861e-02
 1.22747e-02
 1.17632e-02
 1.12518e-02
 1.07403e-02
 1.02289e-02
 9.71741e-03
 9.20597e-03
 8.69452e-03
 8.18308e-03
 7.67163e-03
 7.16019e-03
 6.64874e-03
 6.13730e-03
 5.62586e-03
 5.11441e-03
 4.60297e-03
 4.09153e-03
 3.58009e-03
 3.06865e-03
 2.55721e-03
 2.04576e-03
 1.53432e-03
 1.02288e-03
 5.11441e-04
 1.00000e-60
)


51
(
 1.00000e-60
 3.32979e-03
 1.00687e-02
 8.34172e-03
 5.92523e-03
 4.02602e-03
 7.50792e-03
 6.69493e-03
 6.07090e-03
 5.68508e-03
 5.54022e-03
 5.38509e-03
 5.22194e-03
 5.06048e-03
 1.98288e-02
 1.92779e-02
 1.87271e-02
 1.81762e-02
 1.76254e-02
 1.70746e-02
 1.65237e-02
 1.59729e-02
 1.54221e-02
 1.48713e-02
 1.43205e-02
 1.37697e-02
 1.32189e-02
 1.26681e-02
 1.21173e-02
 1.15665e-02
 1.10157e-02
 1.04649e-02
 9.91412e-03
 9.36333e-03
 8.81254e-03
 8.26176e-03
 7.71097e-03
 7.16019e-03
 6.60940e-03
 6.05861e-03
 5.50783e-03
 4.95705e-03
 4.40626e-03
 3.85548e-03
 3.30470e-03
 2.75391e-03
 2.20313e-03
 1.65235e-03
 1.10156e-03
 5.50782e-04
 1.00000e-60
)


51
(
 1.00000e-60
 3.62590e-03
 1.14230e-02
 9.49640e-03
 6.73397e-03
 4.57064e-03
 8.36082e-03
 7.45360e-03
 6.71078e-03
 6.19442e-03
 5.93595e-03
 5.76973e-03
 5.59494e-03
 5.42194e-03
 2.12452e-02
 2.06549e-02
 2.00647e-02
 1.94745e-02
 1.88843e-02
 1.82942e-02
 1.77040e-02
 1.71138e-02
 1.65237e-02
 1.59335e-02
 1.53434e-02
 1.47532e-02
 1.41631e-02
 1.35729e-02
 1.29828e-02
 1.23927e-02
 1.18025e-02
 1.12124e-02
 1.06223e-02
 1.00321e-02
 9.44201e-03
 8.85188e-03
 8.26175e-03
 7.67163e-03
 7.08150e-03
 6.49137e-03
 5.90125e-03
 5.31112e-03
 4.72100e-03
 4.13087e-03
 3.54075e-03
 2.95062e-03
 2.36050e-03
 1.77037e-03
 1.18025e-03
 5.90124e-04
 1.00000e-60
)


51
(
 1.00000e-60
 3.92417e-03
 1.28317e-02
 1.07055e-02
 7.57807e-03
 5.14042e-03
 9.25431e-03
 8.23189e-03
 7.38595e-03
 6.75320e-03
 6.33168e-03
 6.15438e-03
 5.96793e-03
 5.78340e-03
 2.26615e-02
 2.20319e-02
 2.14024e-02
 2.07728e-02
 2.01433e-02
 1.95138e-02
 1.88843e-02
 1.82547e-02
 1.76252e-02
 1.69958e-02
 1.63663e-02
 1.57368e-02
 1.51073e-02
 1.44778e-02
 1.38483e-02
 1.32188e-02
 1.25894e-02
 1.19599e-02
 1.13304e-02
 1.07010e-02
 1.00715e-02
 9.44201e-03
 8.81254e-03
 8.18307e-03
 7.55360e-03
 6.92413e-03
 6.29466e-03
 5.66520e-03
 5.03573e-03
 4.40626e-03
 3.77680e-03
 3.14733e-03
 2.51786e-03
 1.88840e-03
 1.25893e-03
 6.29466e-04
 1.00000e-60
)


51
(
 1.00000e-60
 4.22699e-03
 1.42889e-02
 1.19652e-02
 8.45451e-03
 5.73364e-03
 1.01478e-02
 9.06456e-03
 8.12625e-03
 7.36749e-03
 6.83331e-03
 6.53903e-03
 6.34093e-03
 6.14487e-03
 2.40778e-02
 2.34089e-02
 2.27400e-02
 2.20711e-02
 2.14023e-02
 2.07334e-02
 2.00645e-02
 1.93957e-02
 1.87268e-02
 1.80580e-02
 1.73891e-02
 1.67203e-02
 1.60515e-02
 1.53827e-02
 1.47138e-02
 1.40450e-02
 1.33762e-02
 1.27074e-02
 1.20386e-02
 1.13698e-02
 1.07009e-02
 1.00321e-02
 9.36332e-03
 8.69451e-03
 8.02570e-03
 7.35689e-03
 6.68808e-03
 6.01927e-03
 5.35046e-03
 4.68166e-03
 4.01285e-03
 3.34404e-03
 2.67523e-03
 2.00642e-03
 1.33761e-03
 6.68807e-04
 1.00000e-60
)


51
(
 1.00000e-60
 4.54310e-03
 1.57891e-02
 1.32716e-02
 9.36027e-03
 6.34859e-03
 1.10599e-02
 9.91013e-03
 8.86656e-03
 8.00283e-03
 7.37163e-03
 6.92368e-03
 6.71392e-03
 6.50633e-03
 2.54942e-02
 2.47859e-02
 2.40777e-02
 2.33694e-02
 2.26612e-02
 2.19530e-02
 2.12448e-02
 2.05366e-02
 1.98284e-02
 1.91202e-02
 1.84120e-02
 1.77039e-02
 1.69957e-02
 1.62875e-02
 1.55794e-02
 1.48712e-02
 1.41630e-02
 1.34549e-02
 1.27467e-02
 1.20386e-02
 1.13304e-02
 1.06223e-02
 9.91411e-03
 9.20595e-03
 8.49780e-03
 7.78965e-03
 7.08150e-03
 6.37335e-03
 5.66520e-03
 4.95705e-03
 4.24890e-03
 3.54075e-03
 2.83260e-03
 2.12445e-03
 1.41630e-03
 7.08149e-04
 1.00000e-60
)


51
(
 1.00000e-60
 4.86767e-03
 1.73265e-02
 1.46211e-02
 1.02923e-02
 6.98355e-03
 1.19749e-02
 1.07880e-02
 9.65628e-03
 8.71892e-03
 7.95796e-03
 7.41517e-03
 7.08692e-03
 6.86779e-03
 2.69105e-02
 2.61629e-02
 2.54153e-02
 2.46677e-02
 2.39202e-02
 2.31726e-02
 2.24251e-02
 2.16775e-02
 2.09300e-02
 2.01825e-02
 1.94349e-02
 1.86874e-02
 1.79399e-02
 1.71924e-02
 1.64449e-02
 1.56974e-02
 1.49499e-02
 1.42024e-02
 1.34549e-02
 1.27074e-02
 1.19599e-02
 1.12124e-02
 1.04649e-02
 9.71739e-03
 8.96990e-03
 8.22241e-03
 7.47491e-03
 6.72742e-03
 5.97993e-03
 5.23244e-03
 4.48495e-03
 3.73745e-03
 2.98996e-03
 2.24247e-03
 1.49498e-03
 7.47490e-04
 1.00000e-60
)


51
(
 1.00000e-60
 5.22792e-03
 1.88953e-02
 1.60098e-02
 1.12476e-02
 7.63680e-03
 1.28898e-02
 1.16659e-02
 1.04730e-02
 9.44418e-03
 8.57857e-03
 7.93734e-03
 7.47384e-03
 7.22925e-03
 2.83269e-02
 2.75399e-02
 2.67530e-02
 2.59660e-02
 2.51791e-02
 2.43922e-02
 2.36053e-02
 2.28184e-02
 2.20316e-02
 2.12447e-02
 2.04578e-02
 1.96710e-02
 1.88841e-02
 1.80973e-02
 1.73104e-02
 1.65236e-02
 1.57367e-02
 1.49499e-02
 1.41630e-02
 1.33762e-02
 1.25893e-02
 1.18025e-02
 1.10157e-02
 1.02288e-02
 9.44200e-03
 8.65516e-03
 7.86833e-03
 7.08149e-03
 6.29466e-03
 5.50783e-03
 4.72099e-03
 3.93416e-03
 3.14733e-03
 2.36050e-03
 1.57366e-03
 7.86832e-04
 1.00000e-60
)


51
(
 1.00000e-60
 5.60264e-03
 2.04899e-02
 1.74338e-02
 1.22231e-02
 8.30663e-03
 1.38236e-02
 2.12467e-02
 1.73778e-02
 1.05875e-02
 1.66465e-02
 1.34350e-02
 7.96196e-03
 7.59072e-03
 2.97432e-02
 2.89169e-02
 2.80906e-02
 2.72643e-02
 2.64381e-02
 2.56118e-02
 2.47856e-02
 2.39594e-02
 2.31331e-02
 2.23069e-02
 2.14807e-02
 2.06545e-02
 1.98283e-02
 1.90021e-02
 1.81759e-02
 1.73497e-02
 1.65235e-02
 1.56974e-02
 1.48712e-02
 1.40450e-02
 1.32188e-02
 1.23926e-02
 1.15665e-02
 1.07403e-02
 9.91410e-03
 9.08792e-03
 8.26175e-03
 7.43557e-03
 6.60940e-03
 5.78322e-03
 4.95704e-03
 4.13087e-03
 3.30470e-03
 2.47852e-03
 1.65235e-03
 8.26174e-04
 1.00000e-60
)


51
(
 1.00000e-60
 6.00772e-03
 2.21045e-02
 1.88895e-02
 1.32158e-02
 8.99132e-03
 1.47586e-02
 3.37070e-02
 3.25147e-02
 3.05086e-02
 3.11537e-02
 2.97981e-02
 2.59536e-02
 2.50268e-02
 3.11596e-02
 3.02939e-02
 2.94283e-02
 2.85627e-02
 2.76970e-02
 2.68314e-02
 2.59659e-02
 2.51003e-02
 2.42347e-02
 2.33692e-02
 2.25036e-02
 2.16381e-02
 2.07725e-02
 1.99070e-02
 1.90414e-02
 1.81759e-02
 1.73104e-02
 1.64449e-02
 1.55793e-02
 1.47138e-02
 1.38483e-02
 1.29828e-02
 1.21172e-02
 1.12517e-02
 1.03862e-02
 9.52068e-03
 8.65516e-03
 7.78964e-03
 6.92413e-03
 6.05861e-03
 5.19309e-03
 4.32758e-03
 3.46206e-03
 2.59655e-03
 1.73103e-03
 8.65515e-04
 1.00000e-60
)


51
(
 1.00000e-60
 6.45839e-03
 2.37335e-02
 2.03729e-02
 1.42227e-02
 9.68916e-03
 2.59061e-02
 2.06229e-02
 1.79500e-02
 1.81350e-02
 2.92079e-02
 2.85027e-02
 2.77714e-02
 2.70344e-02
 2.62968e-02
 1.33861e-02
 1.39725e-02
 1.48595e-02
 2.33575e-02
 2.26249e-02
 2.18928e-02
 2.11612e-02
 2.04301e-02
 1.96992e-02
 1.89686e-02
 1.82382e-02
 1.75079e-02
 1.67778e-02
 1.60478e-02
 1.53180e-02
 1.45882e-02
 1.38584e-02
 1.31288e-02
 1.23992e-02
 1.16696e-02
 1.09402e-02
 1.02106e-02
 9.48122e-03
 8.75178e-03
 8.02239e-03
 7.29301e-03
 6.56365e-03
 5.83431e-03
 5.10500e-03
 4.37569e-03
 3.64640e-03
 2.91709e-03
 2.18780e-03
 1.45853e-03
 7.29264e-04
 1.00000e-60
)


51
(
 1.00000e-60
 6.98239e-03
 2.53709e-02
 2.18803e-02
 1.52407e-02
 1.03984e-02
 2.02899e-02
 2.10800e-02
 2.05833e-02
 2.00994e-02
 1.96155e-02
 1.91294e-02
 1.37274e-02
 1.12942e-02
 1.76636e-02
 1.11950e-02
 1.30470e-02
 1.31737e-02
 1.29387e-02
 1.25915e-02
 1.22057e-02
 1.18063e-02
 1.14020e-02
 1.09960e-02
 1.05894e-02
 1.01825e-02
 9.77551e-03
 9.36841e-03
 8.96128e-03
 8.55408e-03
 8.14688e-03
 7.73963e-03
 7.33237e-03
 6.92509e-03
 6.51780e-03
 6.11048e-03
 5.70315e-03
 5.29581e-03
 4.88849e-03
 4.48113e-03
 4.07378e-03
 3.66641e-03
 3.25904e-03
 2.85167e-03
 2.44430e-03
 2.03692e-03
 1.62954e-03
 1.22216e-03
 8.14776e-04
 4.07389e-04
 1.00000e-60
)


51
(
 1.00000e-60
 7.55166e-03
 2.71665e-02
 2.35238e-02
 1.63747e-02
 1.11146e-02
 3.00599e-02
 2.57203e-02
 2.53671e-02
 2.52618e-02
 2.50118e-02
 1.94419e-02
 2.41144e-02
 2.35641e-02
 2.29803e-02
 9.17960e-03
 2.17601e-02
 2.11362e-02
 2.05074e-02
 1.98752e-02
 1.92405e-02
 1.86043e-02
 1.79668e-02
 1.73282e-02
 1.66891e-02
 1.60492e-02
 1.54089e-02
 1.47683e-02
 1.41274e-02
 1.34861e-02
 1.28446e-02
 1.22033e-02
 1.15615e-02
 1.09197e-02
 1.02778e-02
 9.63559e-03
 8.99349e-03
 8.35129e-03
 7.70911e-03
 7.06680e-03
 6.42447e-03
 5.78214e-03
 5.13976e-03
 4.49731e-03
 3.85488e-03
 3.21242e-03
 2.56998e-03
 1.92752e-03
 1.28502e-03
 6.42515e-04
 1.00000e-60
)


51
(
 1.00000e-60
 8.12094e-03
 2.94280e-02
 2.55395e-02
 1.78396e-02
 1.18371e-02
 4.29082e-02
 1.83727e-02
 3.92986e-02
 4.00140e-02
 3.94137e-02
 3.86197e-02
 3.32120e-02
 3.68030e-02
 1.12588e-02
 2.81512e-02
 3.08801e-02
 3.08639e-02
 3.02264e-02
 2.93891e-02
 2.84806e-02
 2.75465e-02
 2.66028e-02
 2.56556e-02
 2.47072e-02
 2.37579e-02
 2.28086e-02
 2.18588e-02
 2.09090e-02
 1.99590e-02
 1.90089e-02
 1.80589e-02
 1.71086e-02
 1.61583e-02
 1.52081e-02
 1.42576e-02
 1.33072e-02
 1.23568e-02
 1.14064e-02
 1.04559e-02
 9.50537e-03
 8.55491e-03
 7.60447e-03
 6.65395e-03
 5.70331e-03
 4.75278e-03
 3.80226e-03
 2.85172e-03
 1.90116e-03
 9.50583e-04
 1.00000e-60
)


51
(
 1.00000e-60
 8.88241e-03
 3.21208e-02
 2.79127e-02
 1.96122e-02
 1.25779e-02
 5.11289e-02
 3.79595e-02
 2.94437e-02
 1.75877e-02
 1.80510e-02
 2.23417e-02
 1.65222e-02
 1.95885e-02
 1.57833e-02
 1.80776e-02
 1.74764e-02
 1.69156e-02
 1.63765e-02
 1.58489e-02
 1.53278e-02
 1.48104e-02
 1.42954e-02
 1.37818e-02
 1.32692e-02
 1.27573e-02
 1.22457e-02
 1.17344e-02
 1.12236e-02
 1.07127e-02
 1.02021e-02
 9.69136e-03
 9.18104e-03
 8.67075e-03
 8.16044e-03
 7.65031e-03
 7.14014e-03
 6.63006e-03
 6.11991e-03
 5.60985e-03
 5.09984e-03
 4.58987e-03
 4.07986e-03
 3.56987e-03
 3.05989e-03
 2.54989e-03
 2.03987e-03
 1.52989e-03
 1.01992e-03
 5.09963e-04
 1.00000e-60
)


51
(
 1.00000e-60
 9.68324e-03
 3.51987e-02
 3.06198e-02
 2.16614e-02
 1.33490e-02
 5.24722e-02
 5.14594e-02
 5.03193e-02
 4.91387e-02
 2.38987e-02
 1.92092e-02
 1.58287e-02
 1.55329e-02
 1.55483e-02
 1.51472e-02
 1.47275e-02
 1.43004e-02
 1.38699e-02
 1.34379e-02
 1.30050e-02
 1.25719e-02
 1.21386e-02
 1.17051e-02
 1.12717e-02
 1.08382e-02
 1.04047e-02
 9.97114e-03
 9.53762e-03
 9.10409e-03
 8.67057e-03
 8.23705e-03
 7.80352e-03
 7.37000e-03
 6.93646e-03
 6.50294e-03
 6.06941e-03
 5.63588e-03
 5.20235e-03
 4.76882e-03
 4.33529e-03
 3.90176e-03
 3.46823e-03
 3.03470e-03
 2.60117e-03
 2.16765e-03
 1.73412e-03
 1.30059e-03
 8.67059e-04
 4.33529e-04
 1.00000e-60
)


51
(
 1.00000e-60
 1.04841e-02
 3.86152e-02
 3.36374e-02
 2.39558e-02
 1.41625e-02
 5.38140e-02
 5.27759e-02
 5.16067e-02
 5.03957e-02
 3.93358e-02
 3.66903e-02
 3.43067e-02
 3.25325e-02
 3.03418e-02
 2.89486e-02
 2.78614e-02
 2.69269e-02
 2.60618e-02
 2.52266e-02
 2.44039e-02
 2.35864e-02
 2.27711e-02
 2.19569e-02
 2.11430e-02
 2.03294e-02
 1.95159e-02
 1.87025e-02
 1.78891e-02
 1.70758e-02
 1.62626e-02
 1.54493e-02
 1.46361e-02
 1.38230e-02
 1.30098e-02
 1.21966e-02
 1.13835e-02
 1.05704e-02
 9.75721e-03
 8.94412e-03
 8.13099e-03
 7.31788e-03
 6.50477e-03
 5.69165e-03
 4.87857e-03
 4.06548e-03
 3.25237e-03
 2.43927e-03
 1.62618e-03
 8.13089e-04
 1.00000e-60
)


51
(
 1.00000e-60
 1.12849e-02
 4.23239e-02
 3.69420e-02
 2.64640e-02
 1.50305e-02
 5.51677e-02
 5.41200e-02
 5.29259e-02
 5.16854e-02
 5.04306e-02
 4.91715e-02
 4.79109e-02
 4.66500e-02
 4.53890e-02
 4.41281e-02
 4.28671e-02
 4.16062e-02
 4.03453e-02
 3.90844e-02
 3.78235e-02
 3.65627e-02
 3.53018e-02
 3.40410e-02
 3.27802e-02
 3.15194e-02
 3.02586e-02
 2.89978e-02
 2.77370e-02
 2.64762e-02
 2.52155e-02
 2.39547e-02
 2.26939e-02
 2.14331e-02
 2.01723e-02
 1.89116e-02
 1.76508e-02
 1.63900e-02
 1.51292e-02
 1.38685e-02
 1.26077e-02
 1.13469e-02
 1.00862e-02
 8.82539e-03
 7.56462e-03
 6.30385e-03
 5.04308e-03
 3.78231e-03
 2.52154e-03
 1.26077e-03
 1.00000e-60
)


51
(
 1.00000e-60
 1.23151e-02
 4.62785e-02
 4.05102e-02
 2.91550e-02
 1.59651e-02
 5.66253e-02
 5.55493e-02
 5.43233e-02
 5.30497e-02
 5.17617e-02
 5.04692e-02
 4.91754e-02
 4.78812e-02
 4.65869e-02
 4.52926e-02
 4.39983e-02
 4.27041e-02
 4.14099e-02
 4.01158e-02
 3.88216e-02
 3.75275e-02
 3.62334e-02
 3.49393e-02
 3.36452e-02
 3.23512e-02
 3.10571e-02
 2.97630e-02
 2.84690e-02
 2.71749e-02
 2.58809e-02
 2.45868e-02
 2.32928e-02
 2.19987e-02
 2.07047e-02
 1.94106e-02
 1.81166e-02
 1.68225e-02
 1.55285e-02
 1.42344e-02
 1.29404e-02
 1.16464e-02
 1.03523e-02
 9.05828e-03
 7.76424e-03
 6.47020e-03
 5.17616e-03
 3.88212e-03
 2.58808e-03
 1.29404e-03
 1.00000e-60
)


51
(
 1.00000e-60
 1.34057e-02
 5.04325e-02
 4.43185e-02
 3.19973e-02
 1.69784e-02
 5.80829e-02
 5.69786e-02
 5.57264e-02
 5.44217e-02
 5.31007e-02
 5.17749e-02
 5.04475e-02
 4.91197e-02
 4.77919e-02
 4.64641e-02
 4.51364e-02
 4.38086e-02
 4.24810e-02
 4.11533e-02
 3.98257e-02
 3.84981e-02
 3.71705e-02
 3.58430e-02
 3.45154e-02
 3.31879e-02
 3.18603e-02
 3.05328e-02
 2.92053e-02
 2.78777e-02
 2.65502e-02
 2.52227e-02
 2.38952e-02
 2.25677e-02
 2.12401e-02
 1.99126e-02
 1.85851e-02
 1.72576e-02
 1.59301e-02
 1.46026e-02
 1.32751e-02
 1.19476e-02
 1.06201e-02
 9.29255e-03
 7.96504e-03
 6.63753e-03
 5.31003e-03
 3.98252e-03
 2.65501e-03
 1.32751e-03
 1.00000e-60
)


51
(
 1.00000e-60
 1.44963e-02
 5.47396e-02
 4.83433e-02
 3.49596e-02
 1.80824e-02
 5.96655e-02
 5.85511e-02
 5.72643e-02
 5.59230e-02
 5.45654e-02
 5.32028e-02
 5.18388e-02
 5.04744e-02
 4.91099e-02
 4.77455e-02
 4.63811e-02
 4.50168e-02
 4.36525e-02
 4.22882e-02
 4.09240e-02
 3.95598e-02
 3.81956e-02
 3.68314e-02
 3.54672e-02
 3.41031e-02
 3.27389e-02
 3.13748e-02
 3.00106e-02
 2.86465e-02
 2.72824e-02
 2.59182e-02
 2.45541e-02
 2.31900e-02
 2.18259e-02
 2.04618e-02
 1.90976e-02
 1.77335e-02
 1.63694e-02
 1.50053e-02
 1.36412e-02
 1.22770e-02
 1.09129e-02
 9.54881e-03
 8.18469e-03
 6.82058e-03
 5.45646e-03
 4.09234e-03
 2.72823e-03
 1.36411e-03
 1.00000e-60
)


51
(
 1.00000e-60
 1.58649e-02
 5.91534e-02
 5.25613e-02
 3.80107e-02
 1.92894e-02
 6.13163e-02
 6.01874e-02
 5.88692e-02
 5.74915e-02
 5.60960e-02
 5.46951e-02
 5.32927e-02
 5.18900e-02
 5.04872e-02
 4.90845e-02
 4.76818e-02
 4.62792e-02
 4.48766e-02
 4.34741e-02
 4.20716e-02
 4.06691e-02
 3.92667e-02
 3.78642e-02
 3.64618e-02
 3.50594e-02
 3.36570e-02
 3.22546e-02
 3.08522e-02
 2.94498e-02
 2.80474e-02
 2.66450e-02
 2.52427e-02
 2.38403e-02
 2.24379e-02
 2.10355e-02
 1.96332e-02
 1.82308e-02
 1.68284e-02
 1.54260e-02
 1.40237e-02
 1.26213e-02
 1.12189e-02
 9.81657e-03
 8.41420e-03
 7.01184e-03
 5.60947e-03
 4.20710e-03
 2.80473e-03
 1.40237e-03
 1.00000e-60
)


51
(
 1.00000e-60
 1.72545e-02
 6.36275e-02
 5.69490e-02
 4.11193e-02
 2.06114e-02
 6.30786e-02
 6.19352e-02
 6.05836e-02
 5.91670e-02
 5.77309e-02
 5.62892e-02
 5.48458e-02
 5.34021e-02
 5.19584e-02
 5.05147e-02
 4.90712e-02
 4.76277e-02
 4.61842e-02
 4.47408e-02
 4.32974e-02
 4.18541e-02
 4.04108e-02
 3.89675e-02
 3.75242e-02
 3.60809e-02
 3.46376e-02
 3.31944e-02
 3.17511e-02
 3.03079e-02
 2.88646e-02
 2.74214e-02
 2.59781e-02
 2.45349e-02
 2.30917e-02
 2.16484e-02
 2.02052e-02
 1.87620e-02
 1.73187e-02
 1.58755e-02
 1.44323e-02
 1.29890e-02
 1.15458e-02
 1.01026e-02
 8.65936e-03
 7.21613e-03
 5.77291e-03
 4.32968e-03
 2.88645e-03
 1.44323e-03
 1.00000e-60
)


51
(
 1.00000e-60
 1.86440e-02
 6.81156e-02
 6.14828e-02
 4.42541e-02
 2.20605e-02
 6.49561e-02
 6.37732e-02
 6.23795e-02
 6.09199e-02
 5.94409e-02
 5.79563e-02
 5.64700e-02
 5.49835e-02
 5.34970e-02
 5.20106e-02
 5.05243e-02
 4.90380e-02
 4.75519e-02
 4.60657e-02
 4.45796e-02
 4.30935e-02
 4.16074e-02
 4.01214e-02
 3.86354e-02
 3.71494e-02
 3.56634e-02
 3.41774e-02
 3.26914e-02
 3.12054e-02
 2.97194e-02
 2.82334e-02
 2.67474e-02
 2.52614e-02
 2.37755e-02
 2.22895e-02
 2.08035e-02
 1.93176e-02
 1.78316e-02
 1.63456e-02
 1.48597e-02
 1.33737e-02
 1.18877e-02
 1.04018e-02
 8.91579e-03
 7.42983e-03
 5.94386e-03
 4.45789e-03
 2.97193e-03
 1.48596e-03
 1.00000e-60
)


51
(
 1.00000e-60
 2.03862e-02
 7.25713e-02
 6.61394e-02
 4.73838e-02
 2.36487e-02
 6.69517e-02
 6.57509e-02
 6.43189e-02
 6.28150e-02
 6.12900e-02
 5.97591e-02
 5.82265e-02
 5.66936e-02
 5.51608e-02
 5.36281e-02
 5.20955e-02
 5.05631e-02
 4.90306e-02
 4.74982e-02
 4.59659e-02
 4.44336e-02
 4.29013e-02
 4.13691e-02
 3.98368e-02
 3.83046e-02
 3.67724e-02
 3.52402e-02
 3.37080e-02
 3.21758e-02
 3.06436e-02
 2.91114e-02
 2.75792e-02
 2.60470e-02
 2.45148e-02
 2.29826e-02
 2.14505e-02
 1.99183e-02
 1.83861e-02
 1.68539e-02
 1.53217e-02
 1.37896e-02
 1.22574e-02
 1.07252e-02
 9.19304e-03
 7.66087e-03
 6.12869e-03
 4.59652e-03
 3.06435e-03
 1.53217e-03
 1.00000e-60
)


51
(
 1.00000e-60
 2.21470e-02
 7.69481e-02
 7.08952e-02
 5.04772e-02
 2.53883e-02
 6.87849e-02
 6.74794e-02
 6.59874e-02
 6.44379e-02
 6.28716e-02
 6.13007e-02
 5.97285e-02
 5.81562e-02
 5.65840e-02
 5.50118e-02
 5.34398e-02
 5.18678e-02
 5.02959e-02
 4.87240e-02
 4.71521e-02
 4.55803e-02
 4.40085e-02
 4.24367e-02
 4.08650e-02
 3.92932e-02
 3.77214e-02
 3.61497e-02
 3.45779e-02
 3.30062e-02
 3.14345e-02
 2.98627e-02
 2.82910e-02
 2.67193e-02
 2.51475e-02
 2.35758e-02
 2.20041e-02
 2.04324e-02
 1.88606e-02
 1.72889e-02
 1.57172e-02
 1.41455e-02
 1.25738e-02
 1.10020e-02
 9.43032e-03
 7.85860e-03
 6.28688e-03
 4.71516e-03
 3.14344e-03
 1.57172e-03
 1.00000e-60
)


51
(
 1.00000e-60
 2.39077e-02
 8.11997e-02
 7.57267e-02
 5.35029e-02
 2.72912e-02
 7.05859e-02
 6.93464e-02
 6.78427e-02
 6.62571e-02
 6.46480e-02
 6.30325e-02
 6.14155e-02
 5.97984e-02
 5.81815e-02
 5.65648e-02
 5.49482e-02
 5.33317e-02
 5.17153e-02
 5.00990e-02
 4.84828e-02
 4.68666e-02
 4.52504e-02
 4.36342e-02
 4.20181e-02
 4.04019e-02
 3.87858e-02
 3.71697e-02
 3.55536e-02
 3.39375e-02
 3.23214e-02
 3.07053e-02
 2.90893e-02
 2.74732e-02
 2.58571e-02
 2.42410e-02
 2.26250e-02
 2.10089e-02
 1.93928e-02
 1.77767e-02
 1.61607e-02
 1.45446e-02
 1.29285e-02
 1.13125e-02
 9.69640e-03
 8.08033e-03
 6.46426e-03
 4.84820e-03
 3.23213e-03
 1.61607e-03
 1.00000e-60
)


51
(
 1.00000e-60
 2.59075e-02
 8.52798e-02
 8.06106e-02
 5.64296e-02
 2.93697e-02
 7.29873e-02
 7.17199e-02
 7.01685e-02
 6.85289e-02
 6.68643e-02
 6.51931e-02
 6.35205e-02
 6.18478e-02
 6.01754e-02
 5.85032e-02
 5.68312e-02
 5.51593e-02
 5.34876e-02
 5.18159e-02
 5.01442e-02
 4.84726e-02
 4.68010e-02
 4.51295e-02
 4.34580e-02
 4.17865e-02
 4.01150e-02
 3.84435e-02
 3.67720e-02
 3.51005e-02
 3.34290e-02
 3.17576e-02
 3.00861e-02
 2.84146e-02
 2.67432e-02
 2.50717e-02
 2.34003e-02
 2.17288e-02
 2.00574e-02
 1.83859e-02
 1.67145e-02
 1.50430e-02
 1.33716e-02
 1.17001e-02
 1.00287e-02
 8.35723e-03
 6.68579e-03
 5.01434e-03
 3.34289e-03
 1.67145e-03
 1.00000e-60
)


51
(
 1.00000e-60
 2.79849e-02
 8.91418e-02
 8.55233e-02
 5.92261e-02
 3.16357e-02
 7.55402e-02
 7.42354e-02
 7.26289e-02
 7.09310e-02
 6.92075e-02
 6.74774e-02
 6.57459e-02
 6.40146e-02
 6.22835e-02
 6.05527e-02
 5.88221e-02
 5.70917e-02
 5.53613e-02
 5.36311e-02
 5.19009e-02
 5.01707e-02
 4.84406e-02
 4.67105e-02
 4.49804e-02
 4.32503e-02
 4.15203e-02
 3.97902e-02
 3.80602e-02
 3.63302e-02
 3.46001e-02
 3.28701e-02
 3.11401e-02
 2.94101e-02
 2.76801e-02
 2.59501e-02
 2.42201e-02
 2.24900e-02
 2.07600e-02
 1.90300e-02
 1.73000e-02
 1.55700e-02
 1.38400e-02
 1.21100e-02
 1.03800e-02
 8.65001e-03
 6.92001e-03
 5.19000e-03
 3.46000e-03
 1.73000e-03
 1.00000e-60
)


51
(
 1.00000e-60
 3.01016e-02
 9.27396e-02
 9.04413e-02
 6.18611e-02
 3.41014e-02
 7.82517e-02
 7.68971e-02
 7.52331e-02
 7.34736e-02
 7.16878e-02
 6.98954e-02
 6.81017e-02
 6.63082e-02
 6.45151e-02
 6.27222e-02
 6.09296e-02
 5.91372e-02
 5.73448e-02
 5.55526e-02
 5.37604e-02
 5.19683e-02
 5.01761e-02
 4.83841e-02
 4.65920e-02
 4.47999e-02
 4.30079e-02
 4.12159e-02
 3.94239e-02
 3.76318e-02
 3.58398e-02
 3.40478e-02
 3.22558e-02
 3.04638e-02
 2.86718e-02
 2.68798e-02
 2.50878e-02
 2.32958e-02
 2.15038e-02
 1.97119e-02
 1.79199e-02
 1.61279e-02
 1.43359e-02
 1.25439e-02
 1.07519e-02
 8.95994e-03
 7.16795e-03
 5.37596e-03
 3.58397e-03
 1.79199e-03
 1.00000e-60
)


51
(
 1.00000e-60
 3.19942e-02
 9.60266e-02
 9.53412e-02
 6.43033e-02
 3.67789e-02
 8.11128e-02
 7.97100e-02
 7.79820e-02
 7.61569e-02
 7.43052e-02
 7.24470e-02
 7.05877e-02
 6.87287e-02
 6.68701e-02
 6.50118e-02
 6.31538e-02
 6.12959e-02
 5.94382e-02
 5.75805e-02
 5.57229e-02
 5.38653e-02
 5.20078e-02