/*--------------------------------*- C++ -*----------------------------------*\
| =========                 |                                                 |
| \      /  F ield          | OpenFOAM: The Open Source CFD Toolbox           |
|  \    /   O peration      | Version:  7                                     |
|   \  /    A nd            | Web:      http://www.OpenFOAM.com               |
|    \/     M anipulation   |                                                 |
\*---------------------------------------------------------------------------*/
FoamFile 
{   version     2.0;
    format      ascii;
    class       dictionary;
    location    "constant";
    object      LDMtable;
}
// * * * * * * * * * * * * * * * * * * * * * * * * * * * * * * * * * * * * * //

Cps_table
51
(

51
(
 1.00925e+03
 1.03337e+03
 1.05668e+03
 1.08205e+03
 1.10633e+03
 1.12958e+03
 1.15398e+03
 1.17810e+03
 1.20222e+03
 1.22634e+03
 1.25046e+03
 1.27458e+03
 1.29870e+03
 1.32282e+03
 1.34695e+03
 1.37107e+03
 1.39519e+03
 1.41931e+03
 1.44343e+03
 1.46755e+03
 1.49167e+03
 1.51579e+03
 1.53991e+03
 1.56403e+03
 1.58815e+03
 1.61227e+03
 1.63639e+03
 1.66051e+03
 1.68464e+03
 1.70876e+03
 1.73288e+03
 1.75700e+03
 1.78112e+03
 1.80524e+03
 1.82936e+03
 1.85348e+03
 1.87760e+03
 1.90172e+03
 1.92584e+03
 1.94996e+03
 1.97409e+03
 1.99821e+03
 2.02233e+03
 2.04645e+03
 2.07057e+03
 2.09469e+03
 2.11881e+03
 2.14293e+03
 2.16705e+03
 2.19117e+03
 2.21529e+03
)


51
(
 1.00925e+03
 1.03660e+03
 1.05689e+03
 1.08235e+03
 1.10826e+03
 1.14750e+03
 1.17653e+03
 1.20202e+03
 1.22710e+03
 1.25186e+03
 1.27638e+03
 1.30073e+03
 1.32498e+03
 1.34925e+03
 1.37632e+03
 1.40098e+03
 1.42556e+03
 1.45004e+03
 1.47443e+03
 1.49872e+03
 1.52292e+03
 1.54703e+03
 1.57104e+03
 1.59496e+03
 1.61878e+03
 1.64251e+03
 1.66614e+03
 1.68969e+03
 1.71315e+03
 1.73652e+03
 1.75981e+03
 1.78302e+03
 1.80615e+03
 1.82921e+03
 1.85220e+03
 1.87512e+03
 1.89798e+03
 1.92078e+03
 1.94353e+03
 1.96624e+03
 1.98891e+03
 2.01154e+03
 2.03416e+03
 2.05675e+03
 2.07934e+03
 2.10193e+03
 2.12454e+03
 2.14716e+03
 2.16983e+03
 2.19254e+03
 2.21529e+03
)


51
(
 1.00925e+03
 1.03983e+03
 1.05872e+03
 1.08516e+03
 1.11313e+03
 1.16516e+03
 1.19909e+03
 1.22594e+03
 1.25197e+03
 1.27738e+03
 1.30231e+03
 1.32687e+03
 1.35125e+03
 1.37567e+03
 1.40569e+03
 1.43090e+03
 1.45593e+03
 1.48078e+03
 1.50543e+03
 1.52990e+03
 1.55418e+03
 1.57827e+03
 1.60217e+03
 1.62588e+03
 1.64940e+03
 1.67274e+03
 1.69589e+03
 1.71886e+03
 1.74166e+03
 1.76428e+03
 1.78675e+03
 1.80904e+03
 1.83118e+03
 1.85318e+03
 1.87503e+03
 1.89675e+03
 1.91835e+03
 1.93984e+03
 1.96122e+03
 1.98251e+03
 2.00373e+03
 2.02488e+03
 2.04599e+03
 2.06706e+03
 2.08812e+03
 2.10918e+03
 2.13027e+03
 2.15140e+03
 2.17261e+03
 2.19392e+03
 2.21529e+03
)


51
(
 1.00925e+03
 1.04305e+03
 1.06235e+03
 1.09071e+03
 1.12073e+03
 1.18306e+03
 1.22164e+03
 1.24986e+03
 1.27685e+03
 1.30290e+03
 1.32823e+03
 1.35301e+03
 1.37752e+03
 1.40210e+03
 1.43506e+03
 1.46082e+03
 1.48631e+03
 1.51151e+03
 1.53644e+03
 1.56108e+03
 1.58544e+03
 1.60951e+03
 1.63331e+03
 1.65680e+03
 1.68003e+03
 1.70297e+03
 1.72564e+03
 1.74804e+03
 1.77017e+03
 1.79204e+03
 1.81368e+03
 1.83506e+03
 1.85621e+03
 1.87715e+03
 1.89787e+03
 1.91839e+03
 1.93872e+03
 1.95889e+03
 1.97891e+03
 1.99879e+03
 2.01855e+03
 2.03822e+03
 2.05782e+03
 2.07737e+03
 2.09689e+03
 2.11642e+03
 2.13600e+03
 2.15563e+03
 2.17539e+03
 2.19529e+03
 2.21529e+03
)


51
(
 1.00925e+03
 1.04628e+03
 1.06762e+03
 1.09877e+03
 1.13081e+03
 1.20112e+03
 1.24420e+03
 1.27378e+03
 1.30172e+03
 1.32842e+03
 1.35415e+03
 1.37916e+03
 1.40380e+03
 1.42852e+03
 1.46443e+03
 1.49074e+03
 1.51668e+03
 1.54225e+03
 1.56744e+03
 1.59225e+03
 1.61669e+03
 1.64076e+03
 1.66444e+03
 1.68772e+03
 1.71065e+03
 1.73320e+03
 1.75538e+03
 1.77721e+03
 1.79868e+03
 1.81980e+03
 1.84062e+03
 1.86108e+03
 1.88124e+03
 1.90112e+03
 1.92071e+03
 1.94002e+03
 1.95910e+03
 1.97795e+03
 1.99660e+03
 2.01506e+03
 2.03337e+03
 2.05156e+03
 2.06965e+03
 2.08767e+03
 2.10566e+03
 2.12367e+03
 2.14173e+03
 2.15986e+03
 2.17816e+03
 2.19666e+03
 2.21529e+03
)


51
(
 1.00925e+03
 1.04926e+03
 1.07438e+03
 1.10909e+03
 1.14313e+03
 1.21931e+03
 1.26675e+03
 1.29770e+03
 1.32660e+03
 1.35394e+03
 1.38007e+03
 1.40530e+03
 1.43007e+03
 1.45495e+03
 1.49380e+03
 1.52066e+03
 1.54705e+03
 1.57298e+03
 1.59844e+03
 1.62343e+03
 1.64795e+03
 1.67200e+03
 1.69557e+03
 1.71865e+03
 1.74128e+03
 1.76343e+03
 1.78513e+03
 1.80638e+03
 1.82720e+03
 1.84757e+03
 1.86755e+03
 1.88710e+03
 1.90627e+03
 1.92509e+03
 1.94355e+03
 1.96166e+03
 1.97947e+03
 1.99701e+03
 2.01429e+03
 2.03134e+03
 2.04820e+03
 2.06490e+03
 2.08148e+03
 2.09798e+03
 2.11444e+03
 2.13091e+03
 2.14746e+03
 2.16409e+03
 2.18094e+03
 2.19803e+03
 2.21529e+03
)


51
(
 1.00925e+03
 1.05216e+03
 1.08250e+03
 1.12146e+03
 1.15745e+03
 1.23755e+03
 1.28930e+03
 1.32162e+03
 1.35147e+03
 1.37946e+03
 1.40599e+03
 1.43145e+03
 1.45634e+03
 1.48138e+03
 1.52317e+03
 1.55057e+03
 1.57742e+03
 1.60372e+03
 1.62944e+03
 1.65460e+03
 1.67920e+03
 1.70324e+03
 1.72670e+03
 1.74957e+03
 1.77191e+03
 1.79366e+03
 1.81488e+03
 1.83556e+03
 1.85571e+03
 1.87533e+03
 1.89449e+03
 1.91312e+03
 1.93130e+03
 1.94906e+03
 1.96638e+03
 1.98329e+03
 1.99984e+03
 2.01606e+03
 2.03197e+03
 2.04761e+03
 2.06302e+03
 2.07823e+03
 2.09331e+03
 2.10829e+03
 2.12321e+03
 2.13816e+03
 2.15319e+03
 2.16833e+03
 2.18372e+03
 2.19940e+03
 2.21529e+03
)


51
(
 1.00925e+03
 1.05518e+03
 1.09182e+03
 1.13562e+03
 1.17353e+03
 1.25578e+03
 1.31186e+03
 1.34554e+03
 1.37635e+03
 1.40498e+03
 1.43191e+03
 1.45759e+03
 1.48262e+03
 1.50780e+03
 1.55255e+03
 1.58049e+03
 1.60780e+03
 1.63445e+03
 1.66045e+03
 1.68578e+03
 1.71046e+03
 1.73448e+03
 1.75783e+03
 1.78049e+03
 1.80253e+03
 1.82390e+03
 1.84463e+03
 1.86473e+03
 1.88422e+03
 1.90309e+03
 1.92142e+03
 1.93914e+03
 1.95633e+03
 1.97303e+03
 1.98922e+03
 2.00493e+03
 2.02022e+03
 2.03512e+03
 2.04966e+03
 2.06389e+03
 2.07784e+03
 2.09157e+03
 2.10514e+03
 2.11859e+03
 2.13199e+03
 2.14540e+03
 2.15892e+03
 2.17256e+03
 2.18650e+03
 2.20077e+03
 2.21529e+03
)


51
(
 1.00925e+03
 1.05835e+03
 1.10220e+03
 1.15134e+03
 1.19112e+03
 1.27395e+03
 1.33441e+03
 1.36946e+03
 1.40122e+03
 1.43050e+03
 1.45784e+03
 1.48373e+03
 1.50889e+03
 1.53423e+03
 1.58192e+03
 1.61041e+03
 1.63817e+03
 1.66518e+03
 1.69145e+03
 1.71696e+03
 1.74171e+03
 1.76572e+03
 1.78896e+03
 1.81142e+03
 1.83316e+03
 1.85413e+03
 1.87438e+03
 1.89390e+03
 1.91273e+03
 1.93085e+03
 1.94836e+03
 1.96516e+03
 1.98136e+03
 1.99700e+03
 2.01206e+03
 2.02656e+03
 2.04059e+03
 2.05418e+03
 2.06735e+03
 2.08016e+03
 2.09266e+03
 2.10491e+03
 2.11697e+03
 2.12890e+03
 2.14076e+03
 2.15265e+03
 2.16466e+03
 2.17679e+03
 2.18928e+03
 2.20215e+03
 2.21529e+03
)


51
(
 1.00925e+03
 1.06162e+03
 1.11350e+03
 1.16838e+03
 1.20997e+03
 1.29200e+03
 1.35599e+03
 1.39338e+03
 1.42610e+03
 1.45603e+03
 1.48376e+03
 1.50988e+03
 1.53516e+03
 1.56065e+03
 1.61129e+03
 1.64033e+03
 1.66854e+03
 1.69592e+03
 1.72245e+03
 1.74813e+03
 1.77297e+03
 1.79696e+03
 1.82009e+03
 1.84234e+03
 1.86378e+03
 1.88436e+03
 1.90412e+03
 1.92308e+03
 1.94125e+03
 1.95862e+03
 1.97529e+03
 1.99118e+03
 2.00639e+03
 2.02097e+03
 2.03489e+03
 2.04820e+03
 2.06097e+03
 2.07323e+03
 2.08504e+03
 2.09644e+03
 2.10749e+03
 2.11825e+03
 2.12880e+03
 2.13920e+03
 2.14953e+03
 2.15989e+03
 2.17039e+03
 2.18102e+03
 2.19206e+03
 2.20352e+03
 2.21529e+03
)


51
(
 1.00925e+03
 1.06496e+03
 1.12556e+03
 1.18651e+03
 1.22985e+03
 1.30988e+03
 1.37224e+03
 1.41730e+03
 1.45097e+03
 1.48155e+03
 1.50968e+03
 1.53602e+03
 1.56144e+03
 1.58708e+03
 1.64066e+03
 1.67025e+03
 1.69892e+03
 1.72665e+03
 1.75345e+03
 1.77931e+03
 1.80422e+03
 1.82820e+03
 1.85122e+03
 1.87326e+03
 1.89441e+03
 1.91459e+03
 1.93387e+03
 1.95225e+03
 1.96976e+03
 1.98638e+03
 2.00223e+03
 2.01720e+03
 2.03142e+03
 2.04494e+03
 2.05773e+03
 2.06983e+03
 2.08134e+03
 2.09229e+03
 2.10273e+03
 2.11271e+03
 2.12231e+03
 2.13159e+03
 2.14063e+03
 2.14951e+03
 2.15831e+03
 2.16714e+03
 2.17612e+03
 2.18526e+03
 2.19483e+03
 2.20489e+03
 2.21529e+03
)


51
(
 1.00925e+03
 1.06840e+03
 1.13825e+03
 1.20549e+03
 1.25051e+03
 1.32751e+03
 1.38851e+03
 1.43743e+03
 1.47585e+03
 1.50707e+03
 1.53560e+03
 1.56217e+03
 1.58771e+03
 1.61350e+03
 1.67003e+03
 1.70016e+03
 1.72929e+03
 1.75739e+03
 1.78445e+03
 1.81048e+03
 1.83548e+03
 1.85944e+03
 1.88236e+03
 1.90419e+03
 1.92503e+03
 1.94482e+03
 1.96362e+03
 1.98142e+03
 1.99827e+03
 2.01414e+03
 2.02916e+03
 2.04322e+03
 2.05645e+03
 2.06891e+03
 2.08057e+03
 2.09147e+03
 2.10171e+03
 2.11134e+03
 2.12042e+03
 2.12899e+03
 2.13713e+03
 2.14493e+03
 2.15246e+03
 2.15982e+03
 2.16708e+03
 2.17438e+03
 2.18185e+03
 2.18949e+03
 2.19761e+03
 2.20626e+03
 2.21529e+03
)


51
(
 1.00925e+03
 1.07193e+03
 1.15141e+03
 1.22508e+03
 1.27171e+03
 1.34484e+03
 1.40475e+03
 1.45362e+03
 1.50072e+03
 1.53259e+03
 1.56152e+03
 1.58831e+03
 1.61398e+03
 1.63993e+03
 1.69940e+03
 1.73008e+03
 1.75966e+03
 1.78812e+03
 1.81546e+03
 1.84166e+03
 1.86673e+03
 1.89069e+03
 1.91349e+03
 1.93511e+03
 1.95566e+03
 1.97506e+03
 1.99337e+03
 2.01060e+03
 2.02678e+03
 2.04190e+03
 2.05610e+03
 2.06924e+03
 2.08148e+03
 2.09288e+03
 2.10341e+03
 2.11310e+03
 2.12209e+03
 2.13040e+03
 2.13811e+03
 2.14526e+03
 2.15195e+03
 2.15826e+03
 2.16429e+03
 2.17012e+03
 2.17586e+03
 2.18162e+03
 2.18758e+03
 2.19372e+03
 2.20039e+03
 2.20763e+03
 2.21529e+03
)


51
(
 1.00925e+03
 1.07550e+03
 1.16490e+03
 1.24505e+03
 1.29320e+03
 1.36182e+03
 1.42097e+03
 1.46971e+03
 1.51910e+03
 1.55811e+03
 1.58745e+03
 1.61446e+03
 1.64026e+03
 1.66635e+03
 1.72878e+03
 1.76000e+03
 1.79003e+03
 1.81886e+03
 1.84646e+03
 1.87284e+03
 1.89799e+03
 1.92193e+03
 1.94462e+03
 1.96603e+03
 1.98628e+03
 2.00529e+03
 2.02311e+03
 2.03977e+03
 2.05529e+03
 2.06966e+03
 2.08303e+03
 2.09526e+03
 2.10651e+03
 2.11685e+03
 2.12624e+03
 2.13474e+03
 2.14246e+03
 2.14946e+03
 2.15579e+03
 2.16154e+03
 2.16678e+03
 2.17160e+03
 2.17612e+03
 2.18043e+03
 2.18463e+03
 2.18887e+03
 2.19331e+03
 2.19796e+03
 2.20317e+03
 2.20900e+03
 2.21529e+03
)


51
(
 1.00925e+03
 1.07921e+03
 1.17857e+03
 1.26516e+03
 1.31474e+03
 1.37838e+03
 1.43696e+03
 1.48565e+03
 1.53493e+03
 1.58363e+03
 1.61337e+03
 1.64060e+03
 1.66653e+03
 1.69278e+03
 1.75815e+03
 1.78992e+03
 1.82041e+03
 1.84959e+03
 1.87746e+03
 1.90401e+03
 1.92924e+03
 1.95317e+03
 1.97575e+03
 1.99696e+03
 2.01691e+03
 2.03552e+03
 2.05286e+03
 2.06894e+03
 2.08381e+03
 2.09743e+03
 2.10997e+03
 2.12128e+03
 2.13154e+03
 2.14082e+03
 2.14908e+03
 2.15638e+03
 2.16283e+03
 2.16851e+03
 2.17348e+03
 2.17781e+03
 2.18160e+03
 2.18494e+03
 2.18795e+03
 2.19073e+03
 2.19340e+03
 2.19611e+03
 2.19904e+03
 2.20219e+03
 2.20595e+03
 2.21038e+03
 2.21529e+03
)


51
(
 1.00925e+03
 1.08295e+03
 1.19228e+03
 1.28517e+03
 1.33609e+03
 1.39446e+03
 1.45283e+03
 1.50148e+03
 1.55056e+03
 1.60041e+03
 1.63929e+03
 1.66674e+03
 1.69280e+03
 1.71920e+03
 1.78752e+03
 1.81984e+03
 1.85078e+03
 1.88033e+03
 1.90846e+03
 1.93519e+03
 1.96050e+03
 1.98441e+03
 2.00688e+03
 2.02788e+03
 2.04754e+03
 2.06575e+03
 2.08261e+03
 2.09812e+03
 2.11232e+03
 2.12519e+03
 2.13690e+03
 2.14730e+03
 2.15657e+03
 2.16479e+03
 2.17192e+03
 2.17801e+03
 2.18321e+03
 2.18757e+03
 2.19117e+03
 2.19409e+03
 2.19642e+03
 2.19828e+03
 2.19978e+03
 2.20104e+03
 2.20218e+03
 2.20336e+03
 2.20477e+03
 2.20642e+03
 2.20873e+03
 2.21175e+03
 2.21529e+03
)


51
(
 1.00925e+03
 1.08676e+03
 1.20588e+03
 1.30484e+03
 1.35700e+03
 1.41001e+03
 1.46809e+03
 1.51716e+03
 1.56606e+03
 1.61572e+03
 1.66521e+03
 1.69289e+03
 1.71908e+03
 1.74563e+03
 1.81689e+03
 1.84976e+03
 1.88115e+03
 1.91106e+03
 1.93947e+03
 1.96636e+03
 1.99176e+03
 2.01565e+03
 2.03801e+03
 2.05880e+03
 2.07816e+03
 2.09598e+03
 2.11236e+03
 2.12729e+03
 2.14083e+03
 2.15295e+03
 2.16384e+03
 2.17332e+03
 2.18160e+03
 2.18876e+03
 2.19475e+03
 2.19965e+03
 2.20358e+03
 2.20663e+03
 2.20886e+03
 2.21036e+03
 2.21124e+03
 2.21162e+03
 2.21161e+03
 2.21135e+03
 2.21095e+03
 2.21060e+03
 2.21050e+03
 2.21065e+03
 2.21151e+03
 2.21312e+03
 2.21529e+03
)


51
(
 1.00925e+03
 1.09072e+03
 1.21922e+03
 1.32395e+03
 1.37723e+03
 1.42497e+03
 1.48336e+03
 1.53247e+03
 1.58126e+03
 1.63078e+03
 1.68085e+03
 1.71903e+03
 1.74535e+03
 1.77205e+03
 1.84626e+03
 1.87967e+03
 1.91153e+03
 1.94180e+03
 1.97047e+03
 1.99754e+03
 2.02301e+03
 2.04689e+03
 2.06914e+03
 2.08973e+03
 2.10879e+03
 2.12622e+03
 2.14210e+03
 2.15646e+03
 2.16934e+03
 2.18071e+03
 2.19077e+03
 2.19934e+03
 2.20663e+03
 2.21273e+03
 2.21759e+03
 2.22128e+03
 2.22396e+03
 2.22568e+03
 2.22655e+03
 2.22664e+03
 2.22607e+03
 2.22495e+03
 2.22344e+03
 2.22165e+03
 2.21973e+03
 2.21785e+03
 2.21623e+03
 2.21489e+03
 2.21428e+03
 2.21449e+03
 2.21529e+03
)


51
(
 1.00925e+03
 1.09481e+03
 1.23217e+03
 1.34225e+03
 1.39654e+03
 1.43928e+03
 1.49761e+03
 1.54753e+03
 1.59645e+03
 1.64575e+03
 1.69553e+03
 1.74518e+03
 1.77162e+03
 1.79848e+03
 1.87563e+03
 1.90959e+03
 1.94190e+03
 1.97253e+03
 2.00147e+03
 2.02872e+03
 2.05427e+03
 2.07813e+03
 2.10027e+03
 2.12065e+03
 2.13941e+03
 2.15645e+03
 2.17185e+03
 2.18564e+03
 2.19786e+03
 2.20847e+03
 2.21771e+03
 2.22536e+03
 2.23166e+03
 2.23670e+03
 2.24043e+03
 2.24292e+03
 2.24433e+03
 2.24474e+03
 2.24424e+03
 2.24291e+03
 2.24089e+03
 2.23829e+03
 2.23527e+03
 2.23196e+03
 2.22850e+03
 2.22509e+03
 2.22196e+03
 2.21912e+03
 2.21706e+03
 2.21586e+03
 2.21529e+03
)


51
(
 1.00925e+03
 1.09898e+03
 1.24457e+03
 1.35950e+03
 1.41468e+03
 1.45288e+03
 1.51170e+03
 1.56200e+03
 1.61121e+03
 1.66023e+03
 1.70993e+03
 1.75969e+03
 1.79790e+03
 1.82490e+03
 1.90500e+03
 1.93951e+03
 1.97227e+03
 2.00326e+03
 2.03247e+03
 2.05989e+03
 2.08552e+03
 2.10937e+03
 2.13141e+03
 2.15157e+03
 2.17004e+03
 2.18668e+03
 2.20160e+03
 2.21481e+03
 2.22637e+03
 2.23624e+03
 2.24464e+03
 2.25138e+03
 2.25669e+03
 2.26067e+03
 2.26326e+03
 2.26455e+03
 2.26470e+03
 2.26380e+03
 2.26192e+03
 2.25919e+03
 2.25571e+03
 2.25163e+03
 2.24710e+03
 2.24227e+03
 2.23727e+03
 2.23234e+03
 2.22769e+03
 2.22335e+03
 2.21984e+03
 2.21723e+03
 2.21529e+03
)


51
(
 1.00925e+03
 1.10336e+03
 1.25627e+03
 1.37547e+03
 1.43140e+03
 1.46570e+03
 1.52580e+03
 1.57647e+03
 1.62573e+03
 1.67467e+03
 1.72413e+03
 1.77359e+03
 1.82259e+03
 1.85133e+03
 1.93438e+03
 1.96943e+03
 2.00265e+03
 2.03400e+03
 2.06348e+03
 2.09107e+03
 2.11678e+03
 2.14062e+03
 2.16254e+03
 2.18250e+03
 2.20066e+03
 2.21691e+03
 2.23135e+03
 2.24398e+03
 2.25488e+03
 2.26400e+03
 2.27158e+03
 2.27740e+03
 2.28172e+03
 2.28464e+03
 2.28610e+03
 2.28619e+03
 2.28508e+03
 2.28285e+03
 2.27961e+03
 2.27546e+03
 2.27053e+03
 2.26497e+03
 2.25893e+03
 2.25257e+03
 2.24605e+03
 2.23958e+03
 2.23342e+03
 2.22758e+03
 2.22262e+03
 2.21861e+03
 2.21529e+03
)


51
(
 1.00925e+03
 1.10783e+03
 1.26714e+03
 1.38992e+03
 1.44648e+03
 1.47770e+03
 1.53855e+03
 1.61499e+03
 1.65839e+03
 1.69040e+03
 1.76144e+03
 1.80220e+03
 1.83580e+03
 1.87775e+03
 1.96375e+03
 1.99935e+03
 2.03302e+03
 2.06473e+03
 2.09448e+03
 2.12224e+03
 2.14803e+03
 2.17186e+03
 2.19367e+03
 2.21342e+03
 2.23129e+03
 2.24714e+03
 2.26109e+03
 2.27316e+03
 2.28339e+03
 2.29176e+03
 2.29851e+03
 2.30342e+03
 2.30675e+03
 2.30860e+03
 2.30894e+03
 2.30782e+03
 2.30545e+03
 2.30191e+03
 2.29730e+03
 2.29174e+03
 2.28536e+03
 2.27831e+03
 2.27076e+03
 2.26288e+03
 2.25482e+03
 2.24683e+03
 2.23915e+03
 2.23182e+03
 2.22540e+03
 2.21998e+03
 2.21529e+03
)


51
(
 1.00925e+03
 1.11241e+03
 1.27702e+03
 1.40262e+03
 1.45965e+03
 1.48881e+03
 1.55122e+03
 1.66147e+03
 1.71559e+03
 1.76427e+03
 1.81875e+03
 1.86348e+03
 1.89841e+03
 1.94020e+03
 1.99312e+03
 2.02926e+03
 2.06339e+03
 2.09547e+03
 2.12548e+03
 2.15342e+03
 2.17929e+03
 2.20310e+03
 2.22480e+03
 2.24434e+03
 2.26191e+03
 2.27737e+03
 2.29084e+03
 2.30233e+03
 2.31190e+03
 2.31952e+03
 2.32545e+03
 2.32944e+03
 2.33178e+03
 2.33257e+03
 2.33178e+03
 2.32946e+03
 2.32582e+03
 2.32097e+03
 2.31499e+03
 2.30801e+03
 2.30018e+03
 2.29164e+03
 2.28259e+03
 2.27318e+03
 2.26360e+03
 2.25407e+03
 2.24488e+03
 2.23605e+03
 2.22818e+03
 2.22135e+03
 2.21529e+03
)


51
(
 1.00925e+03
 1.11716e+03
 1.28578e+03
 1.41332e+03
 1.47069e+03
 1.49898e+03
 1.60432e+03
 1.64418e+03
 1.68934e+03
 1.74498e+03
 1.82934e+03
 1.87507e+03
 1.91792e+03
 1.95827e+03
 1.99656e+03
 2.00458e+03
 2.04035e+03
 2.07534e+03
 2.12923e+03
 2.15720e+03
 2.18308e+03
 2.20688e+03
 2.22857e+03
 2.24808e+03
 2.26561e+03
 2.28102e+03
 2.29443e+03
 2.30585e+03
 2.31534e+03
 2.32288e+03
 2.32871e+03
 2.33260e+03
 2.33483e+03
 2.33552e+03
 2.33460e+03
 2.33215e+03
 2.32839e+03
 2.32340e+03
 2.31728e+03
 2.31015e+03
 2.30217e+03
 2.29347e+03
 2.28424e+03
 2.27467e+03
 2.26490e+03
 2.25518e+03
 2.24579e+03
 2.23675e+03
 2.22865e+03
 2.22159e+03
 2.21529e+03
)


51
(
 1.00925e+03
 1.12207e+03
 1.29325e+03
 1.42180e+03
 1.47934e+03
 1.50814e+03
 1.59239e+03
 1.65822e+03
 1.71310e+03
 1.76498e+03
 1.81321e+03
 1.85771e+03
 1.88621e+03
 1.92357e+03
 1.97823e+03
 2.00662e+03
 2.04507e+03
 2.07807e+03
 2.10825e+03
 2.13609e+03
 2.16177e+03
 2.18537e+03
 2.20688e+03
 2.22626e+03
 2.24372e+03
 2.25912e+03
 2.27258e+03
 2.28414e+03
 2.29385e+03
 2.30168e+03
 2.30789e+03
 2.31226e+03
 2.31505e+03
 2.31638e+03
 2.31620e+03
 2.31458e+03
 2.31173e+03
 2.30772e+03
 2.30266e+03
 2.29667e+03
 2.28987e+03
 2.28242e+03
 2.27448e+03
 2.26622e+03
 2.25778e+03
 2.24938e+03
 2.24129e+03
 2.23350e+03
 2.22658e+03
 2.22059e+03
 2.21529e+03
)


51
(
 1.00925e+03
 1.12709e+03
 1.29977e+03
 1.42846e+03
 1.48619e+03
 1.51658e+03
 1.61613e+03
 1.66926e+03
 1.72581e+03
 1.77985e+03
 1.83033e+03
 1.86192e+03
 1.92096e+03
 1.96217e+03
 2.00090e+03
 2.01293e+03
 2.07208e+03
 2.10454e+03
 2.13489e+03
 2.16314e+03
 2.18928e+03
 2.21334e+03
 2.23525e+03
 2.25498e+03
 2.27270e+03
 2.28827e+03
 2.30181e+03
 2.31333e+03
 2.32290e+03
 2.33047e+03
 2.33631e+03
 2.34016e+03
 2.34232e+03
 2.34289e+03
 2.34182e+03
 2.33917e+03
 2.33516e+03
 2.32989e+03
 2.32344e+03
 2.31595e+03
 2.30755e+03
 2.29841e+03
 2.28871e+03
 2.27862e+03
 2.26831e+03
 2.25803e+03
 2.24806e+03
 2.23844e+03
 2.22976e+03
 2.22214e+03
 2.21529e+03
)


51
(
 1.00925e+03
 1.13211e+03
 1.30625e+03
 1.43464e+03
 1.49292e+03
 1.52500e+03
 1.64324e+03
 1.65341e+03
 1.76018e+03
 1.82089e+03
 1.87464e+03
 1.92466e+03
 1.96089e+03
 2.01621e+03
 1.98393e+03
 2.07812e+03
 2.12485e+03
 2.16140e+03
 2.19397e+03
 2.22380e+03
 2.25124e+03
 2.27644e+03
 2.29935e+03
 2.31991e+03
 2.33830e+03
 2.35434e+03
 2.36814e+03
 2.37968e+03
 2.38902e+03
 2.39608e+03
 2.40115e+03
 2.40393e+03
 2.40472e+03
 2.40364e+03
 2.40061e+03
 2.39569e+03
 2.38912e+03
 2.38098e+03
 2.37140e+03
 2.36051e+03
 2.34846e+03
 2.33545e+03
 2.32168e+03
 2.30739e+03
 2.29277e+03
 2.27811e+03
 2.26380e+03
 2.24989e+03
 2.23714e+03
 2.22573e+03
 2.21529e+03
)


51
(
 1.00925e+03
 1.13726e+03
 1.31272e+03
 1.44040e+03
 1.49956e+03
 1.53340e+03
 1.66438e+03
 1.70304e+03
 1.74354e+03
 1.77021e+03
 1.82302e+03
 1.88320e+03
 1.91169e+03
 1.96307e+03
 1.99205e+03
 2.03714e+03
 2.07141e+03
 2.10374e+03
 2.13404e+03
 2.16228e+03
 2.18844e+03
 2.21253e+03
 2.23448e+03
 2.25425e+03
 2.27203e+03
 2.28765e+03
 2.30125e+03
 2.31284e+03
 2.32247e+03
 2.33010e+03
 2.33600e+03
 2.33992e+03
 2.34215e+03
 2.34278e+03
 2.34177e+03
 2.33919e+03
 2.33525e+03
 2.33003e+03
 2.32364e+03
 2.31620e+03
 2.30784e+03
 2.29873e+03
 2.28905e+03
 2.27898e+03
 2.26867e+03
 2.25837e+03
 2.24838e+03
 2.23870e+03
 2.22996e+03
 2.22224e+03
 2.21529e+03
)


51
(
 1.00925e+03
 1.14244e+03
 1.31916e+03
 1.44580e+03
 1.50609e+03
 1.54175e+03
 1.67185e+03
 1.73777e+03
 1.79984e+03
 1.85851e+03
 1.84749e+03
 1.88513e+03
 1.92047e+03
 1.96229e+03
 2.00139e+03
 2.03844e+03
 2.07335e+03
 2.10610e+03
 2.13672e+03
 2.16519e+03
 2.19155e+03
 2.21579e+03
 2.23787e+03
 2.25774e+03
 2.27559e+03
 2.29127e+03
 2.30491e+03
 2.31651e+03
 2.32614e+03
 2.33375e+03
 2.33962e+03
 2.34348e+03
 2.34563e+03
 2.34618e+03
 2.34507e+03
 2.34236e+03
 2.33828e+03
 2.33291e+03
 2.32635e+03
 2.31873e+03
 2.31018e+03
 2.30086e+03
 2.29097e+03
 2.28067e+03
 2.27013e+03
 2.25959e+03
 2.24935e+03
 2.23944e+03
 2.23045e+03
 2.22249e+03
 2.21529e+03
)


51
(
 1.00925e+03
 1.14763e+03
 1.32553e+03
 1.45085e+03
 1.51250e+03
 1.55001e+03
 1.67873e+03
 1.74564e+03
 1.80863e+03
 1.86819e+03
 1.89738e+03
 1.94462e+03
 1.98855e+03
 2.03100e+03
 2.07127e+03
 2.10927e+03
 2.14448e+03
 2.17792e+03
 2.20958e+03
 2.23929e+03
 2.26695e+03
 2.29249e+03
 2.31581e+03
 2.33679e+03
 2.35559e+03
 2.37202e+03
 2.38616e+03
 2.39800e+03
 2.40758e+03
 2.41480e+03
 2.41996e+03
 2.42273e+03
 2.42343e+03
 2.42215e+03
 2.41881e+03
 2.41347e+03
 2.40636e+03
 2.39757e+03
 2.38722e+03
 2.37543e+03
 2.36238e+03
 2.34824e+03
 2.33324e+03
 2.31763e+03
 2.30161e+03
 2.28546e+03
 2.26964e+03
 2.25420e+03
 2.23994e+03
 2.22710e+03
 2.21529e+03
)


51
(
 1.00925e+03
 1.15281e+03
 1.33183e+03
 1.45559e+03
 1.51877e+03
 1.55815e+03
 1.68553e+03
 1.75326e+03
 1.81711e+03
 1.87753e+03
 1.93479e+03
 1.98887e+03
 2.04002e+03
 2.08829e+03
 2.13370e+03
 2.17629e+03
 2.21403e+03
 2.24895e+03
 2.28190e+03
 2.31291e+03
 2.34186e+03
 2.36868e+03
 2.39322e+03
 2.41530e+03
 2.43507e+03
 2.45226e+03
 2.46694e+03
 2.47906e+03
 2.48863e+03
 2.49552e+03
 2.50004e+03
 2.50177e+03
 2.50106e+03
 2.49803e+03
 2.49252e+03
 2.48458e+03
 2.47450e+03
 2.46234e+03
 2.44823e+03
 2.43231e+03
 2.41477e+03
 2.39582e+03
 2.37572e+03
 2.35477e+03
 2.33325e+03
 2.31147e+03
 2.29003e+03
 2.26904e+03
 2.24949e+03
 2.23173e+03
 2.21529e+03
)


51
(
 1.00925e+03
 1.15787e+03
 1.33802e+03
 1.46007e+03
 1.52487e+03
 1.56613e+03
 1.69151e+03
 1.76014e+03
 1.82486e+03
 1.88610e+03
 1.94416e+03
 1.99900e+03
 2.05090e+03
 2.09987e+03
 2.14596e+03
 2.18920e+03
 2.22862e+03
 2.26398e+03
 2.29706e+03
 2.32825e+03
 2.35743e+03
 2.38451e+03
 2.40933e+03
 2.43169e+03
 2.45173e+03
 2.46918e+03
 2.48408e+03
 2.49637e+03
 2.50606e+03
 2.51301e+03
 2.51752e+03
 2.51915e+03
 2.51828e+03
 2.51498e+03
 2.50911e+03
 2.50072e+03
 2.49008e+03
 2.47727e+03
 2.46241e+03
 2.44563e+03
 2.42713e+03
 2.40712e+03
 2.38589e+03
 2.36373e+03
 2.34094e+03
 2.31782e+03
 2.29504e+03
 2.27270e+03
 2.25185e+03
 2.23288e+03
 2.21529e+03
)


51
(
 1.00925e+03
 1.16291e+03
 1.34411e+03
 1.46431e+03
 1.53079e+03
 1.57394e+03
 1.69750e+03
 1.76703e+03
 1.83257e+03
 1.89463e+03
 1.95348e+03
 2.00909e+03
 2.06172e+03
 2.11140e+03
 2.15816e+03
 2.20205e+03
 2.24309e+03
 2.27897e+03
 2.31217e+03
 2.34354e+03
 2.37295e+03
 2.40029e+03
 2.42537e+03
 2.44802e+03
 2.46834e+03
 2.48603e+03
 2.50115e+03
 2.51362e+03
 2.52343e+03
 2.53044e+03
 2.53494e+03
 2.53648e+03
 2.53543e+03
 2.53188e+03
 2.52566e+03
 2.51682e+03
 2.50563e+03
 2.49217e+03
 2.47655e+03
 2.45892e+03
 2.43946e+03
 2.41841e+03
 2.39604e+03
 2.37267e+03
 2.34861e+03
 2.32416e+03
 2.30004e+03
 2.27636e+03
 2.25421e+03
 2.23402e+03
 2.21529e+03
)


51
(
 1.00925e+03
 1.16794e+03
 1.35005e+03
 1.46834e+03
 1.53651e+03
 1.58152e+03
 1.70297e+03
 1.77326e+03
 1.83961e+03
 1.90244e+03
 1.96205e+03
 2.01838e+03
 2.07172e+03
 2.12208e+03
 2.16949e+03
 2.21399e+03
 2.25562e+03
 2.29328e+03
 2.32660e+03
 2.35806e+03
 2.38763e+03
 2.41517e+03
 2.44049e+03
 2.46339e+03
 2.48395e+03
 2.50189e+03
 2.51723e+03
 2.52988e+03
 2.53982e+03
 2.54691e+03
 2.55143e+03
 2.55292e+03
 2.55175e+03
 2.54798e+03
 2.54146e+03
 2.53222e+03
 2.52053e+03
 2.50647e+03
 2.49016e+03
 2.47173e+03
 2.45138e+03
 2.42933e+03
 2.40588e+03
 2.38136e+03
 2.35608e+03
 2.33034e+03
 2.30492e+03
 2.27993e+03
 2.25651e+03
 2.23514e+03
 2.21529e+03
)


51
(
 1.00925e+03
 1.17260e+03
 1.35584e+03
 1.47221e+03
 1.54200e+03
 1.58886e+03
 1.70822e+03
 1.77928e+03
 1.84640e+03
 1.90999e+03
 1.97034e+03
 2.02739e+03
 2.08141e+03
 2.13243e+03
 2.18048e+03
 2.22559e+03
 2.26780e+03
 2.30683e+03
 2.34078e+03
 2.37231e+03
 2.40200e+03
 2.42972e+03
 2.45525e+03
 2.47838e+03
 2.49919e+03
 2.51736e+03
 2.53291e+03
 2.54575e+03
 2.55584e+03
 2.56301e+03
 2.56757e+03
 2.56902e+03
 2.56772e+03
 2.56376e+03
 2.55696e+03
 2.54733e+03
 2.53517e+03
 2.52054e+03
 2.50356e+03
 2.48436e+03
 2.46313e+03
 2.44011e+03
 2.41561e+03
 2.38995e+03
 2.36346e+03
 2.33646e+03
 2.30974e+03
 2.28346e+03
 2.25878e+03
 2.23625e+03
 2.21529e+03
)


51
(
 1.00925e+03
 1.17723e+03
 1.36144e+03
 1.47594e+03
 1.54726e+03
 1.59593e+03
 1.71317e+03
 1.78497e+03
 1.85284e+03
 1.91717e+03
 1.97823e+03
 2.03597e+03
 2.09067e+03
 2.14233e+03
 2.19100e+03
 2.23670e+03
 2.27947e+03
 2.31935e+03
 2.35455e+03
 2.38617e+03
 2.41595e+03
 2.44380e+03
 2.46952e+03
 2.49286e+03
 2.51389e+03
 2.53229e+03
 2.54805e+03
 2.56107e+03
 2.57131e+03
 2.57858e+03
 2.58318e+03
 2.58460e+03
 2.58321e+03
 2.57909e+03
 2.57203e+03
 2.56205e+03
 2.54944e+03
 2.53427e+03
 2.51664e+03
 2.49670e+03
 2.47464e+03
 2.45068e+03
 2.42515e+03
 2.39838e+03
 2.37072e+03
 2.34247e+03
 2.31449e+03
 2.28694e+03
 2.26102e+03
 2.23734e+03
 2.21529e+03
)


51
(
 1.00925e+03
 1.18186e+03
 1.36685e+03
 1.47957e+03
 1.55225e+03
 1.60268e+03
 1.71787e+03
 1.79044e+03
 1.85906e+03
 1.92411e+03
 1.98587e+03
 2.04429e+03
 2.09964e+03
 2.15194e+03
 2.20121e+03
 2.24749e+03
 2.29082e+03
 2.33123e+03
 2.36801e+03
 2.39980e+03
 2.42963e+03
 2.45760e+03
 2.48347e+03
 2.50701e+03
 2.52825e+03
 2.54686e+03
 2.56283e+03
 2.57603e+03
 2.58642e+03
 2.59380e+03
 2.59845e+03
 2.59986e+03
 2.59839e+03
 2.59411e+03
 2.58681e+03
 2.57649e+03
 2.56346e+03
 2.54777e+03
 2.52953e+03
 2.50887e+03
 2.48598e+03
 2.46111e+03
 2.43457e+03
 2.40672e+03
 2.37790e+03
 2.34843e+03
 2.31919e+03
 2.29038e+03
 2.26324e+03
 2.23841e+03
 2.21529e+03
)


51
(
 1.00925e+03
 1.18605e+03
 1.37204e+03
 1.48313e+03
 1.55697e+03
 1.60908e+03
 1.72236e+03
 1.79563e+03
 1.86494e+03
 1.93068e+03
 1.99312e+03
 2.05220e+03
 2.10818e+03
 2.16110e+03
 2.21096e+03
 2.25780e+03
 2.30168e+03
 2.34259e+03
 2.38045e+03
 2.41308e+03
 2.44291e+03
 2.47095e+03
 2.49695e+03
 2.52065e+03
 2.54208e+03
 2.56089e+03
 2.57705e+03
 2.59044e+03
 2.60098e+03
 2.60847e+03
 2.61319e+03
 2.61460e+03
 2.61307e+03
 2.60865e+03
 2.60113e+03
 2.59052e+03
 2.57709e+03
 2.56091e+03
 2.54208e+03
 2.52074e+03
 2.49707e+03
 2.47132e+03
 2.44380e+03
 2.41489e+03
 2.38495e+03
 2.35428e+03
 2.32382e+03
 2.29377e+03
 2.26542e+03
 2.23947e+03
 2.21529e+03
)


51
(
 1.00925e+03
 1.19022e+03
 1.37700e+03
 1.48666e+03
 1.56139e+03
 1.61512e+03
 1.72697e+03
 1.80108e+03
 1.87119e+03
 1.93769e+03
 2.00083e+03
 2.06068e+03
 2.11736e+03
 2.17091e+03
 2.22138e+03
 2.26882e+03
 2.31328e+03
 2.35477e+03
 2.39333e+03
 2.42762e+03
 2.45742e+03
 2.48546e+03
 2.51155e+03
 2.53544e+03
 2.55704e+03
 2.57608e+03
 2.59246e+03
 2.60604e+03
 2.61673e+03
 2.62437e+03
 2.62908e+03
 2.63061e+03
 2.62903e+03
 2.62439e+03
 2.61667e+03
 2.60579e+03
 2.59195e+03
 2.57531e+03
 2.55590e+03
 2.53378e+03
 2.50928e+03
 2.48261e+03
 2.45394e+03
 2.42378e+03
 2.39259e+03
 2.36071e+03
 2.32885e+03
 2.29766e+03
 2.26770e+03
 2.24083e+03
 2.21529e+03
)


51
(
 1.00925e+03
 1.19438e+03
 1.38169e+03
 1.49019e+03
 1.56548e+03
 1.62074e+03
 1.73158e+03
 1.80632e+03
 1.87712e+03
 1.94431e+03
 2.00813e+03
 2.06870e+03
 2.12603e+03
 2.18020e+03
 2.23127e+03
 2.27928e+03
 2.32429e+03
 2.36633e+03
 2.40543e+03
 2.44137e+03
 2.47131e+03
 2.49934e+03
 2.52549e+03
 2.54955e+03
 2.57129e+03
 2.59054e+03
 2.60713e+03
 2.62090e+03
 2.63173e+03
 2.63952e+03
 2.64423e+03
 2.64587e+03
 2.64425e+03
 2.63943e+03
 2.63152e+03
 2.62040e+03
 2.60616e+03
 2.58909e+03
 2.56912e+03
 2.54628e+03
 2.52099e+03
 2.49343e+03
 2.46367e+03
 2.43234e+03
 2.39996e+03
 2.36691e+03
 2.33370e+03
 2.30138e+03
 2.26993e+03
 2.24209e+03
 2.21529e+03
)


51
(
 1.00925e+03
 1.19840e+03
 1.38611e+03
 1.49376e+03
 1.56925e+03
 1.62593e+03
 1.73551e+03
 1.81087e+03
 1.88230e+03
 1.95012e+03
 2.01456e+03
 2.07573e+03
 2.13365e+03
 2.18839e+03
 2.24000e+03
 2.28854e+03
 2.33406e+03
 2.37658e+03
 2.41613e+03
 2.45264e+03
 2.48379e+03
 2.51178e+03
 2.53796e+03
 2.56210e+03
 2.58398e+03
 2.60338e+03
 2.62014e+03
 2.63407e+03
 2.64505e+03
 2.65296e+03
 2.65776e+03
 2.65942e+03
 2.65779e+03
 2.65288e+03
 2.64481e+03
 2.63344e+03
 2.61888e+03
 2.60139e+03
 2.58092e+03
 2.55746e+03
 2.53147e+03
 2.50312e+03
 2.47245e+03
 2.44013e+03
 2.40668e+03
 2.37252e+03
 2.33813e+03
 2.30464e+03
 2.27201e+03
 2.24312e+03
 2.21529e+03
)


51
(
 1.00925e+03
 1.20236e+03
 1.39023e+03
 1.49740e+03
 1.57265e+03
 1.63064e+03
 1.73930e+03
 1.81526e+03
 1.88731e+03
 1.95574e+03
 2.02078e+03
 2.08254e+03
 2.14103e+03
 2.19632e+03
 2.24846e+03
 2.29752e+03
 2.34352e+03
 2.38651e+03
 2.42651e+03
 2.46353e+03
 2.49602e+03
 2.52397e+03
 2.55016e+03
 2.57436e+03
 2.59635e+03
 2.61589e+03
 2.63280e+03
 2.64689e+03
 2.65801e+03
 2.66605e+03
 2.67093e+03
 2.67264e+03
 2.67099e+03
 2.66600e+03
 2.65779e+03
 2.64619e+03
 2.63132e+03
 2.61344e+03
 2.59247e+03
 2.56843e+03
 2.54176e+03
 2.51263e+03
 2.48108e+03
 2.44779e+03
 2.41330e+03
 2.37804e+03
 2.34250e+03
 2.30785e+03
 2.27407e+03
 2.24413e+03
 2.21529e+03
)


51
(
 1.00925e+03
 1.20619e+03
 1.39403e+03
 1.50114e+03
 1.57568e+03
 1.63485e+03
 1.74296e+03
 1.81950e+03
 1.89213e+03
 1.96116e+03
 2.02678e+03
 2.08910e+03
 2.14815e+03
 2.20397e+03
 2.25663e+03
 2.30619e+03
 2.35267e+03
 2.39612e+03
 2.43656e+03
 2.47399e+03
 2.50799e+03
 2.53590e+03
 2.56206e+03
 2.58631e+03
 2.60838e+03
 2.62804e+03
 2.64509e+03
 2.65933e+03
 2.67060e+03
 2.67876e+03
 2.68372e+03
 2.68548e+03
 2.68383e+03
 2.67877e+03
 2.67042e+03
 2.65862e+03
 2.64346e+03
 2.62520e+03
 2.60377e+03
 2.57916e+03
 2.55184e+03
 2.52195e+03
 2.48955e+03
 2.45531e+03
 2.41981e+03
 2.38347e+03
 2.34680e+03
 2.31101e+03
 2.27610e+03
 2.24513e+03
 2.21529e+03
)


51
(
 1.00925e+03
 1.20889e+03
 1.39749e+03
 1.50502e+03
 1.57831e+03
 1.63853e+03
 1.74651e+03
 1.82357e+03
 1.89678e+03
 1.96636e+03
 2.03254e+03
 2.09541e+03
 2.15499e+03
 2.21133e+03
 2.26450e+03
 2.31453e+03
 2.36148e+03
 2.40538e+03
 2.44624e+03
 2.48408e+03
 2.51886e+03
 2.54754e+03
 2.57364e+03