/*--------------------------------*- C++ -*----------------------------------*\
| =========                 |                                                 |
| \      /  F ield          | OpenFOAM: The Open Source CFD Toolbox           |
|  \    /   O peration      | Version:  7                                     |
|   \  /    A nd            | Web:      http://www.OpenFOAM.com               |
|    \/     M anipulation   |                                                 |
\*---------------------------------------------------------------------------*/
FoamFile 
{   version     2.0;
    format      ascii;
    class       dictionary;
    location    "constant";
    object      LDMtable;
}
// * * * * * * * * * * * * * * * * * * * * * * * * * * * * * * * * * * * * * //

H2O_table
51
(

51
(
 1.00000e-60
 3.02613e-30
 3.78371e-13
 6.30929e-16
 3.92750e-10
 5.02776e-07
 1.78373e-29
 2.07116e-29
 2.36053e-29
 2.65946e-29
 2.93330e-29
 3.17807e-29
 3.28314e-29
 3.36064e-29
 3.40913e-29
 3.42931e-29
 3.44689e-29
 3.45277e-29
 3.45708e-29
 3.42580e-29
 3.36537e-29
 3.30453e-29
 3.24152e-29
 3.15572e-29
 3.04791e-29
 2.93724e-29
 2.82061e-29
 2.70664e-29
 2.59423e-29
 2.47978e-29
 2.37185e-29
 2.26830e-29
 2.16040e-29
 2.04856e-29
 1.93724e-29
 1.82499e-29
 1.71002e-29
 1.59360e-29
 1.47541e-29
 1.35450e-29
 1.23296e-29
 1.11023e-29
 9.87580e-30
 8.64402e-30
 7.40989e-30
 6.17462e-30
 4.94058e-30
 3.70732e-30
 2.47470e-30
 1.24216e-30
 1.00000e-60
)


51
(
 1.00000e-60
 1.02527e-03
 3.94198e-05
 4.95181e-05
 5.09260e-05
 5.06644e-04
 3.09831e-03
 3.04326e-03
 2.97739e-03
 2.90787e-03
 2.83675e-03
 2.76407e-03
 2.69017e-03
 2.61648e-03
 2.55980e-03
 2.48869e-03
 2.41759e-03
 2.34648e-03
 2.27538e-03
 2.20427e-03
 2.13317e-03
 2.06206e-03
 1.99095e-03
 1.91985e-03
 1.84874e-03
 1.77764e-03
 1.70653e-03
 1.63543e-03
 1.56432e-03
 1.49322e-03
 1.42211e-03
 1.35101e-03
 1.27990e-03
 1.20879e-03
 1.13769e-03
 1.06658e-03
 9.95478e-04
 9.24373e-04
 8.53267e-04
 7.82162e-04
 7.11056e-04
 6.39950e-04
 5.68845e-04
 4.97739e-04
 4.26634e-04
 3.55528e-04
 2.84422e-04
 2.13317e-04
 1.42211e-04
 7.11056e-05
 1.00000e-60
)


51
(
 1.00000e-60
 2.05053e-03
 4.04533e-04
 5.08752e-04
 5.02289e-04
 1.38508e-03
 6.19663e-03
 6.08651e-03
 5.95477e-03
 5.81575e-03
 5.67350e-03
 5.52815e-03
 5.38034e-03
 5.23297e-03
 5.11960e-03
 4.97739e-03
 4.83518e-03
 4.69297e-03
 4.55076e-03
 4.40854e-03
 4.26633e-03
 4.12412e-03
 3.98191e-03
 3.83970e-03
 3.69749e-03
 3.55528e-03
 3.41306e-03
 3.27085e-03
 3.12864e-03
 2.98643e-03
 2.84422e-03
 2.70201e-03
 2.55980e-03
 2.41759e-03
 2.27538e-03
 2.13317e-03
 1.99096e-03
 1.84875e-03
 1.70653e-03
 1.56432e-03
 1.42211e-03
 1.27990e-03
 1.13769e-03
 9.95478e-04
 8.53267e-04
 7.11056e-04
 5.68845e-04
 4.26634e-04
 2.84422e-04
 1.42211e-04
 1.00000e-60
)


51
(
 1.00000e-60
 3.07580e-03
 1.13004e-03
 1.42255e-03
 1.39728e-03
 2.53778e-03
 9.29494e-03
 9.12977e-03
 8.93216e-03
 8.72362e-03
 8.51025e-03
 8.29222e-03
 8.07052e-03
 7.84945e-03
 7.67939e-03
 7.46608e-03
 7.25277e-03
 7.03945e-03
 6.82613e-03
 6.61281e-03
 6.39950e-03
 6.18618e-03
 5.97286e-03
 5.75955e-03
 5.54623e-03
 5.33291e-03
 5.11960e-03
 4.90628e-03
 4.69296e-03
 4.47965e-03
 4.26633e-03
 4.05302e-03
 3.83970e-03
 3.62638e-03
 3.41307e-03
 3.19975e-03
 2.98643e-03
 2.77312e-03
 2.55980e-03
 2.34648e-03
 2.13317e-03
 1.91985e-03
 1.70653e-03
 1.49322e-03
 1.27990e-03
 1.06658e-03
 8.53267e-04
 6.39951e-04
 4.26634e-04
 2.13317e-04
 1.00000e-60
)


51
(
 1.00000e-60
 4.10107e-03
 2.18850e-03
 2.75775e-03
 2.70389e-03
 3.94686e-03
 1.23933e-02
 1.21730e-02
 1.19095e-02
 1.16315e-02
 1.13470e-02
 1.10563e-02
 1.07607e-02
 1.04659e-02
 1.02392e-02
 9.95478e-03
 9.67036e-03
 9.38593e-03
 9.10151e-03
 8.81709e-03
 8.53266e-03
 8.24824e-03
 7.96382e-03
 7.67939e-03
 7.39497e-03
 7.11055e-03
 6.82613e-03
 6.54171e-03
 6.25729e-03
 5.97286e-03
 5.68844e-03
 5.40402e-03
 5.11960e-03
 4.83518e-03
 4.55076e-03
 4.26633e-03
 3.98191e-03
 3.69749e-03
 3.41307e-03
 3.12865e-03
 2.84422e-03
 2.55980e-03
 2.27538e-03
 1.99096e-03
 1.70653e-03
 1.42211e-03
 1.13769e-03
 8.53267e-04
 5.68845e-04
 2.84422e-04
 1.00000e-60
)


51
(
 1.00000e-60
 4.98590e-03
 3.55246e-03
 4.48117e-03
 4.39008e-03
 5.59439e-03
 1.54916e-02
 1.52163e-02
 1.48869e-02
 1.45394e-02
 1.41837e-02
 1.38204e-02
 1.34509e-02
 1.30824e-02
 1.27990e-02
 1.24435e-02
 1.20879e-02
 1.17324e-02
 1.13769e-02
 1.10214e-02
 1.06658e-02
 1.03103e-02
 9.95477e-03
 9.59924e-03
 9.24372e-03
 8.88819e-03
 8.53266e-03
 8.17713e-03
 7.82161e-03
 7.46608e-03
 7.11055e-03
 6.75503e-03
 6.39950e-03
 6.04397e-03
 5.68844e-03
 5.33292e-03
 4.97739e-03
 4.62186e-03
 4.26634e-03
 3.91081e-03
 3.55528e-03
 3.19975e-03
 2.84422e-03
 2.48870e-03
 2.13317e-03
 1.77764e-03
 1.42211e-03
 1.06658e-03
 7.11056e-04
 3.55528e-04
 1.00000e-60
)


51
(
 1.00000e-60
 5.78716e-03
 5.19449e-03
 6.55964e-03
 6.42385e-03
 7.46248e-03
 1.85899e-02
 1.82595e-02
 1.78643e-02
 1.74472e-02
 1.70205e-02
 1.65844e-02
 1.61410e-02
 1.56989e-02
 1.53588e-02
 1.49322e-02
 1.45055e-02
 1.40789e-02
 1.36523e-02
 1.32256e-02
 1.27990e-02
 1.23724e-02
 1.19457e-02
 1.15191e-02
 1.10925e-02
 1.06658e-02
 1.02392e-02
 9.81256e-03
 9.38593e-03
 8.95930e-03
 8.53266e-03
 8.10603e-03
 7.67940e-03
 7.25277e-03
 6.82613e-03
 6.39950e-03
 5.97287e-03
 5.54624e-03
 5.11960e-03
 4.69297e-03
 4.26634e-03
 3.83970e-03
 3.41307e-03
 2.98644e-03
 2.55980e-03
 2.13317e-03
 1.70653e-03
 1.27990e-03
 8.53267e-04
 4.26634e-04
 1.00000e-60
)


51
(
 1.00000e-60
 6.62048e-03
 7.08714e-03
 8.95999e-03
 8.77316e-03
 9.53321e-03
 2.16882e-02
 2.13028e-02
 2.08417e-02
 2.03551e-02
 1.98572e-02
 1.93485e-02
 1.88312e-02
 1.83154e-02
 1.79186e-02
 1.74209e-02
 1.69231e-02
 1.64254e-02
 1.59276e-02
 1.54299e-02
 1.49322e-02
 1.44344e-02
 1.39367e-02
 1.34389e-02
 1.29412e-02
 1.24435e-02
 1.19457e-02
 1.14480e-02
 1.09503e-02
 1.04525e-02
 9.95478e-03
 9.45704e-03
 8.95930e-03
 8.46156e-03
 7.96382e-03
 7.46609e-03
 6.96835e-03
 6.47061e-03
 5.97287e-03
 5.47513e-03
 4.97739e-03
 4.47965e-03
 3.98191e-03
 3.48417e-03
 2.98644e-03
 2.48870e-03
 1.99096e-03
 1.49322e-03
 9.95479e-04
 4.97739e-04
 1.00000e-60
)


51
(
 1.00000e-60
 7.48228e-03
 9.20298e-03
 1.16490e-02
 1.14060e-02
 1.17887e-02
 2.47865e-02
 2.43461e-02
 2.38191e-02
 2.32630e-02
 2.26940e-02
 2.21126e-02
 2.15214e-02
 2.09319e-02
 2.04784e-02
 1.99096e-02
 1.93407e-02
 1.87719e-02
 1.82030e-02
 1.76342e-02
 1.70653e-02
 1.64965e-02
 1.59276e-02
 1.53588e-02
 1.47899e-02
 1.42211e-02
 1.36523e-02
 1.30834e-02
 1.25146e-02
 1.19457e-02
 1.13769e-02
 1.08080e-02
 1.02392e-02
 9.67035e-03
 9.10151e-03
 8.53267e-03
 7.96382e-03
 7.39498e-03
 6.82614e-03
 6.25729e-03
 5.68845e-03
 5.11960e-03
 4.55076e-03
 3.98191e-03
 3.41307e-03
 2.84423e-03
 2.27538e-03
 1.70653e-03
 1.13769e-03
 5.68845e-04
 1.00000e-60
)


51
(
 1.00000e-60
 8.36325e-03
 1.15146e-02
 1.45936e-02
 1.42904e-02
 1.42110e-02
 2.77627e-02
 2.73893e-02
 2.67965e-02
 2.61709e-02
 2.55307e-02
 2.48767e-02
 2.42115e-02
 2.35483e-02
 2.30382e-02
 2.23983e-02
 2.17583e-02
 2.11184e-02
 2.04784e-02
 1.98384e-02
 1.91985e-02
 1.85585e-02
 1.79186e-02
 1.72786e-02
 1.66387e-02
 1.59987e-02
 1.53588e-02
 1.47188e-02
 1.40789e-02
 1.34389e-02
 1.27990e-02
 1.21590e-02
 1.15191e-02
 1.08791e-02
 1.02392e-02
 9.59925e-03
 8.95930e-03
 8.31935e-03
 7.67940e-03
 7.03945e-03
 6.39950e-03
 5.75955e-03
 5.11960e-03
 4.47965e-03
 3.83970e-03
 3.19975e-03
 2.55980e-03
 1.91985e-03
 1.27990e-03
 6.39951e-04
 1.00000e-60
)


51
(
 1.00000e-60
 9.25816e-03
 1.39944e-02
 1.77606e-02
 1.73942e-02
 1.67822e-02
 3.00862e-02
 3.04326e-02
 2.97739e-02
 2.90787e-02
 2.83675e-02
 2.76407e-02
 2.69017e-02
 2.61648e-02
 2.55980e-02
 2.48869e-02
 2.41759e-02
 2.34648e-02
 2.27538e-02
 2.20427e-02
 2.13317e-02
 2.06206e-02
 1.99095e-02
 1.91985e-02
 1.84874e-02
 1.77764e-02
 1.70653e-02
 1.63543e-02
 1.56432e-02
 1.49322e-02
 1.42211e-02
 1.35101e-02
 1.27990e-02
 1.20879e-02
 1.13769e-02
 1.06658e-02
 9.95478e-03
 9.24373e-03
 8.53267e-03
 7.82162e-03
 7.11056e-03
 6.39950e-03
 5.68845e-03
 4.97739e-03
 4.26634e-03
 3.55528e-03
 2.84422e-03
 2.13317e-03
 1.42211e-03
 7.11056e-04
 1.00000e-60
)


51
(
 1.00000e-60
 1.01706e-02
 1.66152e-02
 2.11167e-02
 2.06855e-02
 1.94844e-02
 3.24786e-02
 3.30919e-02
 3.27512e-02
 3.19866e-02
 3.12042e-02
 3.04048e-02
 2.95919e-02
 2.87813e-02
 2.81578e-02
 2.73756e-02
 2.65935e-02
 2.58113e-02
 2.50292e-02
 2.42470e-02
 2.34648e-02
 2.26827e-02
 2.19005e-02
 2.11183e-02
 2.03362e-02
 1.95540e-02
 1.87719e-02
 1.79897e-02
 1.72075e-02
 1.64254e-02
 1.56432e-02
 1.48611e-02
 1.40789e-02
 1.32967e-02
 1.25146e-02
 1.17324e-02
 1.09503e-02
 1.01681e-02
 9.38594e-03
 8.60378e-03
 7.82162e-03
 7.03945e-03
 6.25729e-03
 5.47513e-03
 4.69297e-03
 3.91081e-03
 3.12865e-03
 2.34649e-03
 1.56432e-03
 7.82162e-04
 1.00000e-60
)


51
(
 1.00000e-60
 1.11023e-02
 1.93493e-02
 2.46289e-02
 2.41323e-02
 2.22998e-02
 3.49401e-02
 3.53826e-02
 3.57286e-02
 3.48945e-02
 3.40410e-02
 3.31689e-02
 3.22821e-02
 3.13978e-02
 3.07176e-02
 2.98643e-02
 2.90111e-02
 2.81578e-02
 2.73045e-02
 2.64513e-02
 2.55980e-02
 2.47447e-02
 2.38915e-02
 2.30382e-02
 2.21849e-02
 2.13317e-02
 2.04784e-02
 1.96251e-02
 1.87719e-02
 1.79186e-02
 1.70653e-02
 1.62121e-02
 1.53588e-02
 1.45055e-02
 1.36523e-02
 1.27990e-02
 1.19457e-02
 1.10925e-02
 1.02392e-02
 9.38594e-03
 8.53267e-03
 7.67941e-03
 6.82614e-03
 5.97287e-03
 5.11960e-03
 4.26634e-03
 3.41307e-03
 2.55980e-03
 1.70653e-03
 8.53267e-04
 1.00000e-60
)


51
(
 1.00000e-60
 1.20433e-02
 2.21694e-02
 2.82639e-02
 2.77025e-02
 2.52103e-02
 3.74316e-02
 3.77364e-02
 3.81516e-02
 3.78024e-02
 3.68777e-02
 3.59329e-02
 3.49722e-02
 3.40143e-02
 3.32774e-02
 3.23530e-02
 3.14287e-02
 3.05043e-02
 2.95799e-02
 2.86555e-02
 2.77312e-02
 2.68068e-02
 2.58824e-02
 2.49580e-02
 2.40337e-02
 2.31093e-02
 2.21849e-02
 2.12605e-02
 2.03362e-02
 1.94118e-02
 1.84874e-02
 1.75631e-02
 1.66387e-02
 1.57143e-02
 1.47900e-02
 1.38656e-02
 1.29412e-02
 1.20168e-02
 1.10925e-02
 1.01681e-02
 9.24373e-03
 8.31936e-03
 7.39498e-03
 6.47061e-03
 5.54624e-03
 4.62187e-03
 3.69749e-03
 2.77312e-03
 1.84875e-03
 9.24373e-04
 1.00000e-60
)


51
(
 1.00000e-60
 1.30196e-02
 2.50480e-02
 3.19886e-02
 3.13641e-02
 2.81982e-02
 3.99838e-02
 4.01422e-02
 4.03953e-02
 4.07102e-02
 3.97145e-02
 3.86970e-02
 3.76624e-02
 3.66308e-02
 3.58372e-02
 3.48417e-02
 3.38463e-02
 3.28508e-02
 3.18553e-02
 3.08598e-02
 2.98643e-02
 2.88688e-02
 2.78734e-02
 2.68779e-02
 2.58824e-02
 2.48869e-02
 2.38915e-02
 2.28960e-02
 2.19005e-02
 2.09050e-02
 1.99096e-02
 1.89141e-02
 1.79186e-02
 1.69231e-02
 1.59276e-02
 1.49322e-02
 1.39367e-02
 1.29412e-02
 1.19457e-02
 1.09503e-02
 9.95478e-03
 8.95931e-03
 7.96383e-03
 6.96835e-03
 5.97287e-03
 4.97739e-03
 3.98191e-03
 2.98644e-03
 1.99096e-03
 9.95479e-04
 1.00000e-60
)


51
(
 1.00000e-60
 1.40052e-02
 2.79578e-02
 3.57698e-02
 3.50851e-02
 3.12454e-02
 4.25608e-02
 4.25880e-02
 4.26937e-02
 4.29690e-02
 4.25512e-02
 4.14611e-02
 4.03526e-02
 3.92472e-02
 3.83970e-02
 3.73304e-02
 3.62638e-02
 3.51973e-02
 3.41307e-02
 3.30641e-02
 3.19975e-02
 3.09309e-02
 2.98643e-02
 2.87977e-02
 2.77311e-02
 2.66646e-02
 2.55980e-02
 2.45314e-02
 2.34648e-02
 2.23982e-02
 2.13317e-02
 2.02651e-02
 1.91985e-02
 1.81319e-02
 1.70653e-02
 1.59988e-02
 1.49322e-02
 1.38656e-02
 1.27990e-02
 1.17324e-02
 1.06658e-02
 9.59926e-03
 8.53267e-03
 7.46609e-03
 6.39951e-03
 5.33292e-03
 4.26634e-03
 3.19975e-03
 2.13317e-03
 1.06658e-03
 1.00000e-60
)


51
(
 1.00000e-60
 1.50081e-02
 3.08711e-02
 3.95743e-02
 3.88334e-02
 3.43341e-02
 4.51953e-02
 4.50538e-02
 4.50224e-02
 4.51549e-02
 4.53880e-02
 4.42252e-02
 4.30427e-02
 4.18637e-02
 4.09568e-02
 3.98191e-02
 3.86814e-02
 3.75437e-02
 3.64060e-02
 3.52683e-02
 3.41307e-02
 3.29930e-02
 3.18553e-02
 3.07176e-02
 2.95799e-02
 2.84422e-02
 2.73045e-02
 2.61668e-02
 2.50291e-02
 2.38915e-02
 2.27538e-02
 2.16161e-02
 2.04784e-02
 1.93407e-02
 1.82030e-02
 1.70653e-02
 1.59276e-02
 1.47900e-02
 1.36523e-02
 1.25146e-02
 1.13769e-02
 1.02392e-02
 9.10152e-03
 7.96383e-03
 6.82614e-03
 5.68845e-03
 4.55076e-03
 3.41307e-03
 2.27538e-03
 1.13769e-03
 1.00000e-60
)


51
(
 1.00000e-60
 1.60480e-02
 3.37607e-02
 4.33689e-02
 4.25772e-02
 3.74463e-02
 4.78297e-02
 4.75751e-02
 4.74073e-02
 4.73834e-02
 4.75364e-02
 4.69892e-02
 4.57329e-02
 4.44802e-02
 4.35166e-02
 4.23078e-02
 4.10990e-02
 3.98902e-02
 3.86814e-02
 3.74726e-02
 3.62638e-02
 3.50550e-02
 3.38462e-02
 3.26374e-02
 3.14286e-02
 3.02198e-02
 2.90110e-02
 2.78023e-02
 2.65935e-02
 2.53847e-02
 2.41759e-02
 2.29671e-02
 2.17583e-02
 2.05495e-02
 1.93407e-02
 1.81319e-02
 1.69231e-02
 1.57143e-02
 1.45055e-02
 1.32967e-02
 1.20880e-02
 1.08792e-02
 9.67036e-03
 8.46157e-03
 7.25277e-03
 6.04398e-03
 4.83518e-03
 3.62639e-03
 2.41759e-03
 1.20880e-03
 1.00000e-60
)


51
(
 1.00000e-60
 1.71209e-02
 3.65990e-02
 4.71206e-02
 4.62842e-02
 4.05643e-02
 5.05095e-02
 5.01097e-02
 4.97922e-02
 4.96280e-02
 4.96493e-02
 4.97533e-02
 4.84231e-02
 4.70967e-02
 4.60764e-02
 4.47965e-02
 4.35166e-02
 4.22367e-02
 4.09568e-02
 3.96769e-02
 3.83970e-02
 3.71171e-02
 3.58372e-02
 3.45573e-02
 3.32774e-02
 3.19975e-02
 3.07176e-02
 2.94377e-02
 2.81578e-02
 2.68779e-02
 2.55980e-02
 2.43181e-02
 2.30382e-02
 2.17583e-02
 2.04784e-02
 1.91985e-02
 1.79186e-02
 1.66387e-02
 1.53588e-02
 1.40789e-02
 1.27990e-02
 1.15191e-02
 1.02392e-02
 8.95931e-03
 7.67941e-03
 6.39951e-03
 5.11960e-03
 3.83970e-03
 2.55980e-03
 1.27990e-03
 1.00000e-60
)


51
(
 1.00000e-60
 1.82149e-02
 3.93587e-02
 5.07960e-02
 4.99225e-02
 4.36700e-02
 5.31961e-02
 5.26778e-02
 5.22139e-02
 5.19226e-02
 5.17892e-02
 5.17866e-02
 5.11133e-02
 4.97132e-02
 4.86362e-02
 4.72852e-02
 4.59342e-02
 4.45832e-02
 4.32322e-02
 4.18812e-02
 4.05302e-02
 3.91791e-02
 3.78281e-02
 3.64771e-02
 3.51261e-02
 3.37751e-02
 3.24241e-02
 3.10731e-02
 2.97221e-02
 2.83711e-02
 2.70201e-02
 2.56691e-02
 2.43181e-02
 2.29671e-02
 2.16161e-02
 2.02651e-02
 1.89141e-02
 1.75631e-02
 1.62121e-02
 1.48611e-02
 1.35101e-02
 1.21591e-02
 1.08081e-02
 9.45705e-03
 8.10604e-03
 6.75503e-03
 5.40403e-03
 4.05302e-03
 2.70201e-03
 1.35101e-03
 1.00000e-60
)


51
(
 1.00000e-60
 1.93543e-02
 4.20122e-02
 5.43621e-02
 5.34602e-02
 4.67455e-02
 5.58827e-02
 5.52459e-02
 5.46557e-02
 5.42229e-02
 5.39464e-02
 5.38010e-02
 5.37060e-02
 5.23297e-02
 5.11960e-02
 4.97739e-02
 4.83518e-02
 4.69297e-02
 4.55076e-02
 4.40854e-02
 4.26633e-02
 4.12412e-02
 3.98191e-02
 3.83970e-02
 3.69749e-02
 3.55528e-02
 3.41306e-02
 3.27085e-02
 3.12864e-02
 2.98643e-02
 2.84422e-02
 2.70201e-02
 2.55980e-02
 2.41759e-02
 2.27538e-02
 2.13317e-02
 1.99096e-02
 1.84875e-02
 1.70653e-02
 1.56432e-02
 1.42211e-02
 1.27990e-02
 1.13769e-02
 9.95478e-03
 8.53267e-03
 7.11056e-03
 5.68845e-03
 4.26634e-03
 2.84422e-03
 1.42211e-03
 1.00000e-60
)


51
(
 1.00000e-60
 2.05120e-02
 4.45321e-02
 5.77857e-02
 5.68651e-02
 4.97730e-02
 5.85966e-02
 6.03090e-02
 5.86564e-02
 5.66151e-02
 5.74382e-02
 5.64891e-02
 5.55903e-02
 5.49461e-02
 5.37557e-02
 5.22626e-02
 5.07694e-02
 4.92762e-02
 4.77829e-02
 4.62897e-02
 4.47965e-02
 4.33033e-02
 4.18100e-02
 4.03168e-02
 3.88236e-02
 3.73304e-02
 3.58372e-02
 3.43440e-02
 3.28508e-02
 3.13575e-02
 2.98643e-02
 2.83711e-02
 2.68779e-02
 2.53847e-02
 2.38915e-02
 2.23983e-02
 2.09050e-02
 1.94118e-02
 1.79186e-02
 1.64254e-02
 1.49322e-02
 1.34390e-02
 1.19457e-02
 1.04525e-02
 8.95931e-03
 7.46609e-03
 5.97287e-03
 4.47965e-03
 2.98644e-03
 1.49322e-03
 1.00000e-60
)


51
(
 1.00000e-60
 2.16905e-02
 4.68911e-02
 6.10336e-02
 6.01052e-02
 5.27345e-02
 6.13124e-02
 6.61976e-02
 6.47647e-02
 6.31392e-02
 6.20839e-02
 6.06389e-02
 5.90238e-02
 5.77875e-02
 5.63155e-02
 5.47513e-02
 5.31870e-02
 5.16226e-02
 5.00583e-02
 4.84940e-02
 4.69297e-02
 4.53653e-02
 4.38010e-02
 4.22367e-02
 4.06724e-02
 3.91080e-02
 3.75437e-02
 3.59794e-02
 3.44151e-02
 3.28508e-02
 3.12864e-02
 2.97221e-02
 2.81578e-02
 2.65935e-02
 2.50292e-02
 2.34648e-02
 2.19005e-02
 2.03362e-02
 1.87719e-02
 1.72076e-02
 1.56432e-02
 1.40789e-02
 1.25146e-02
 1.09503e-02
 9.38594e-03
 7.82162e-03
 6.25729e-03
 4.69297e-03
 3.12865e-03
 1.56432e-03
 1.00000e-60
)


51
(
 1.00000e-60
 2.29002e-02
 4.90616e-02
 6.40725e-02
 6.31486e-02
 5.56121e-02
 7.17659e-02
 6.74981e-02
 6.50418e-02
 6.44596e-02
 6.51971e-02
 6.35690e-02
 6.19406e-02
 6.03117e-02
 5.86825e-02
 5.67402e-02
 5.56264e-02
 5.40641e-02
 5.21641e-02
 5.05342e-02
 4.89043e-02
 4.72744e-02
 4.56444e-02
 4.40143e-02
 4.23843e-02
 4.07542e-02
 3.91241e-02
 3.74940e-02
 3.58639e-02
 3.42338e-02
 3.26036e-02
 3.09735e-02
 2.93433e-02
 2.77132e-02
 2.60830e-02
 2.44529e-02
 2.28227e-02
 2.11925e-02
 1.95623e-02
 1.79321e-02
 1.63020e-02
 1.46718e-02
 1.30416e-02
 1.14114e-02
 9.78119e-03
 8.15099e-03
 6.52079e-03
 4.89060e-03
 3.26040e-03
 1.63020e-03
 1.00000e-60
)


51
(
 1.00000e-60
 2.41295e-02
 5.10162e-02
 6.68695e-02
 6.59632e-02
 5.83879e-02
 7.09233e-02
 7.12236e-02
 6.96409e-02
 6.80137e-02
 6.63692e-02
 6.47171e-02
 6.21259e-02
 6.05713e-02
 5.97467e-02
 5.82959e-02
 5.67363e-02
 5.50953e-02
 5.34359e-02
 5.17701e-02
 5.01017e-02
 4.84323e-02
 4.67625e-02
 4.50926e-02
 4.34226e-02
 4.17525e-02
 4.00824e-02
 3.84124e-02
 3.67423e-02
 3.50722e-02
 3.34021e-02
 3.17320e-02
 3.00619e-02
 2.83918e-02
 2.67217e-02
 2.50516e-02
 2.33815e-02
 2.17114e-02
 2.00413e-02
 1.83712e-02
 1.67011e-02
 1.50310e-02
 1.33609e-02
 1.16908e-02
 1.00207e-02
 8.35056e-03
 6.68045e-03
 5.01033e-03
 3.34022e-03
 1.67011e-03
 1.00000e-60
)


51
(
 1.00000e-60
 2.53709e-02
 5.28200e-02
 6.94648e-02
 6.86559e-02
 6.11697e-02
 7.39450e-02
 7.23023e-02
 7.07491e-02
 6.91407e-02
 6.74966e-02
 6.47313e-02
 6.41573e-02
 6.24769e-02
 6.07933e-02
 5.96871e-02
 5.74212e-02
 5.57339e-02
 5.40461e-02
 5.23581e-02
 5.06698e-02
 4.89813e-02
 4.72927e-02
 4.56040e-02
 4.39153e-02
 4.22264e-02
 4.05376e-02
 3.88486e-02
 3.71597e-02
 3.54707e-02
 3.37817e-02
 3.20927e-02
 3.04037e-02
 2.87147e-02
 2.70256e-02
 2.53365e-02
 2.36475e-02
 2.19584e-02
 2.02693e-02
 1.85802e-02
 1.68911e-02
 1.52020e-02
 1.35129e-02
 1.18238e-02
 1.01347e-02
 8.44557e-03
 6.75646e-03
 5.06735e-03
 3.37823e-03
 1.68912e-03
 1.00000e-60
)


51
(
 1.00000e-60
 2.66124e-02
 5.46556e-02
 7.20045e-02
 7.14993e-02
 6.42026e-02
 7.69947e-02
 7.13111e-02
 7.33988e-02
 7.22070e-02
 7.05147e-02
 6.87853e-02
 6.68508e-02
 6.52852e-02
 6.22166e-02
 6.18927e-02
 6.03165e-02
 5.85921e-02
 5.68336e-02
 5.50638e-02
 5.32899e-02
 5.15145e-02
 4.97385e-02
 4.79623e-02
 4.61860e-02
 4.44097e-02
 4.26334e-02
 4.08570e-02
 3.90807e-02
 3.73043e-02
 3.55279e-02
 3.37515e-02
 3.19752e-02
 3.01988e-02
 2.84224e-02
 2.66460e-02
 2.48696e-02
 2.30932e-02
 2.13168e-02
 1.95404e-02
 1.77640e-02
 1.59876e-02
 1.42112e-02
 1.24348e-02
 1.06584e-02
 8.88202e-03
 7.10561e-03
 5.32921e-03
 3.55281e-03
 1.77640e-03
 1.00000e-60
)


51
(
 1.00000e-60
 2.78400e-02
 5.65213e-02
 7.44983e-02
 7.44794e-02
 6.74627e-02
 8.06270e-02
 7.71022e-02
 7.39078e-02
 7.04294e-02
 6.90372e-02
 6.81755e-02
 6.58365e-02
 6.44343e-02
 6.24456e-02
 6.08837e-02
 5.91318e-02
 5.73859e-02
 5.56431e-02
 5.39021e-02
 5.21620e-02
 5.04224e-02
 4.86831e-02
 4.69440e-02
 4.52051e-02
 4.34662e-02
 4.17274e-02
 3.99886e-02
 3.82499e-02
 3.65112e-02
 3.47725e-02
 3.30338e-02
 3.12951e-02
 2.95565e-02
 2.78178e-02
 2.60792e-02
 2.43406e-02
 2.26020e-02
 2.08633e-02
 1.91247e-02
 1.73861e-02
 1.56475e-02
 1.39089e-02
 1.21703e-02
 1.04317e-02
 8.69305e-03
 6.95443e-03
 5.21582e-03
 3.47721e-03
 1.73861e-03
 1.00000e-60
)


51
(
 1.00000e-60
 2.90648e-02
 5.84085e-02
 7.69508e-02
 7.75721e-02
 7.09170e-02
 8.31765e-02
 8.16294e-02
 7.98413e-02
 7.79756e-02
 7.19914e-02
 6.98198e-02
 6.75962e-02
 6.58659e-02
 6.39640e-02
 6.21935e-02
 6.04204e-02
 5.86455e-02
 5.68695e-02
 5.50929e-02
 5.33161e-02
 5.15390e-02
 4.97619e-02
 4.79848e-02
 4.62076e-02
 4.44304e-02
 4.26532e-02
 4.08759e-02
 3.90987e-02
 3.73215e-02
 3.55443e-02
 3.37671e-02
 3.19899e-02
 3.02127e-02
 2.84354e-02
 2.66582e-02
 2.48810e-02
 2.31038e-02
 2.13266e-02
 1.95494e-02
 1.77721e-02
 1.59949e-02
 1.42177e-02
 1.24405e-02
 1.06633e-02
 8.88608e-03
 7.10886e-03
 5.33164e-03
 3.55443e-03
 1.77722e-03
 1.00000e-60
)


51
(
 1.00000e-60
 3.02897e-02
 6.03088e-02
 7.93666e-02
 8.07532e-02
 7.45322e-02
 8.56569e-02
 8.40649e-02
 8.22238e-02
 8.03024e-02
 7.66812e-02
 7.46163e-02
 7.25110e-02
 7.04893e-02
 6.86905e-02
 6.67237e-02
 6.47905e-02
 6.28735e-02
 6.09636e-02
 5.90566e-02
 5.71507e-02
 5.52454e-02
 5.33402e-02
 5.14351e-02
 4.95300e-02
 4.76249e-02
 4.57199e-02
 4.38149e-02
 4.19099e-02
 4.00049e-02
 3.80999e-02
 3.61948e-02
 3.42898e-02
 3.23848e-02
 3.04799e-02
 2.85749e-02
 2.66699e-02
 2.47649e-02
 2.28599e-02
 2.09549e-02
 1.90499e-02
 1.71449e-02
 1.52399e-02
 1.33349e-02
 1.14299e-02
 9.52495e-03
 7.61996e-03
 5.71497e-03
 3.80998e-03
 1.90499e-03
 1.00000e-60
)


51
(
 1.00000e-60
 3.15145e-02
 6.22138e-02
 8.17504e-02
 8.39988e-02
 7.82750e-02
 8.81213e-02
 8.64627e-02
 8.45625e-02
 8.25844e-02
 8.05820e-02
 7.85715e-02
 7.65583e-02
 7.45442e-02
 7.25297e-02
 7.05151e-02
 6.85004e-02
 6.64857e-02
 6.44710e-02
 6.24563e-02
 6.04416e-02
 5.84269e-02
 5.64122e-02
 5.43975e-02
 5.23828e-02
 5.03681e-02
 4.83533e-02
 4.63386e-02
 4.43239e-02
 4.23092e-02
 4.02945e-02
 3.82798e-02
 3.62650e-02
 3.42503e-02
 3.22356e-02
 3.02209e-02
 2.82062e-02
 2.61914e-02
 2.41767e-02
 2.21620e-02
 2.01473e-02
 1.81325e-02
 1.61178e-02
 1.41031e-02
 1.20884e-02
 1.00736e-02
 8.05891e-03
 6.04419e-03
 4.02946e-03
 2.01473e-03
 1.00000e-60
)


51
(
 1.00000e-60
 3.26726e-02
 6.41150e-02
 8.41067e-02
 8.72846e-02
 8.21123e-02
 9.04457e-02
 8.87443e-02
 8.67940e-02
 8.47638e-02
 8.27084e-02
 8.06449e-02
 7.85785e-02
 7.65112e-02
 7.44436e-02
 7.23758e-02
 7.03080e-02
 6.82401e-02
 6.61722e-02
 6.41044e-02
 6.20365e-02
 5.99686e-02
 5.79007e-02
 5.58329e-02
 5.37650e-02
 5.16971e-02
 4.96292e-02
 4.75614e-02
 4.54935e-02
 4.34256e-02
 4.13577e-02
 3.92898e-02
 3.72220e-02
 3.51541e-02
 3.30862e-02
 3.10183e-02
 2.89504e-02
 2.68826e-02
 2.48147e-02
 2.27468e-02
 2.06789e-02
 1.86110e-02
 1.65431e-02
 1.44752e-02
 1.24073e-02
 1.03395e-02
 8.27156e-03
 6.20367e-03
 4.13578e-03
 2.06789e-03
 1.00000e-60
)


51
(
 1.00000e-60
 3.38133e-02
 6.60038e-02
 8.64402e-02
 9.05866e-02
 8.60108e-02
 9.27701e-02
 9.10259e-02
 8.90202e-02
 8.69360e-02
 8.48274e-02
 8.27108e-02
 8.05915e-02
 7.84713e-02
 7.63507e-02
 7.42299e-02
 7.21091e-02
 6.99883e-02
 6.78675e-02
 6.57466e-02
 6.36258e-02
 6.15049e-02
 5.93841e-02
 5.72632e-02
 5.51424e-02
 5.30215e-02
 5.09007e-02
 4.87799e-02
 4.66590e-02
 4.45381e-02
 4.24173e-02
 4.02964e-02
 3.81756e-02
 3.60547e-02
 3.39339e-02
 3.18130e-02
 2.96921e-02
 2.75713e-02
 2.54504e-02
 2.33295e-02
 2.12087e-02
 1.90878e-02
 1.69669e-02
 1.48461e-02
 1.27252e-02
 1.06043e-02
 8.48348e-03
 6.36261e-03
 4.24174e-03
 2.12087e-03
 1.00000e-60
)


51
(
 1.00000e-60
 3.49539e-02
 6.78719e-02
 8.87554e-02
 9.38807e-02
 8.99373e-02
 9.49799e-02
 9.31744e-02
 9.11206e-02
 8.89871e-02
 8.68286e-02
 8.46620e-02
 8.24927e-02
 8.03224e-02
 7.81517e-02
 7.59810e-02
 7.38101e-02
 7.16393e-02
 6.94684e-02
 6.72975e-02
 6.51267e-02
 6.29558e-02
 6.07849e-02
 5.86140e-02
 5.64431e-02
 5.42723e-02
 5.21014e-02
 4.99305e-02
 4.77596e-02
 4.55888e-02
 4.34179e-02
 4.12470e-02
 3.90761e-02
 3.69052e-02
 3.47343e-02
 3.25634e-02
 3.03925e-02
 2.82217e-02
 2.60508e-02
 2.38799e-02
 2.17090e-02
 1.95381e-02
 1.73672e-02
 1.51963e-02
 1.30254e-02
 1.08545e-02
 8.68359e-03
 6.51270e-03
 4.34180e-03
 2.17090e-03
 1.00000e-60
)


51
(
 1.00000e-60
 3.59853e-02
 6.97107e-02
 9.10570e-02
 9.71427e-02
 9.38586e-02
 9.71337e-02
 9.52725e-02
 9.31677e-02
 9.09847e-02
 8.87773e-02
 8.65619e-02
 8.43439e-02
 8.21249e-02
 7.99055e-02
 7.76860e-02
 7.54665e-02
 7.32469e-02
 7.10274e-02
 6.88078e-02
 6.65882e-02
 6.43686e-02
 6.21490e-02
 5.99294e-02
 5.77098e-02
 5.54902e-02
 5.32706e-02
 5.10510e-02
 4.88314e-02
 4.66118e-02
 4.43922e-02
 4.21726e-02
 3.99530e-02
 3.77334e-02
 3.55138e-02
 3.32942e-02
 3.10746e-02
 2.88550e-02
 2.66354e-02
 2.44158e-02
 2.21962e-02
 1.99765e-02
 1.77569e-02
 1.55373e-02
 1.33177e-02
 1.10981e-02
 8.87847e-03
 6.65885e-03
 4.43923e-03
 2.21962e-03
 1.00000e-60
)


51
(
 1.00000e-60
 3.70084e-02
 7.15119e-02
 9.33496e-02
 1.00349e-01
 9.77415e-02
 9.92031e-02
 9.72867e-02
 9.51323e-02
 9.29016e-02
 9.06471e-02
 8.83849e-02
 8.61201e-02
 8.38543e-02
 8.15883e-02
 7.93221e-02
 7.70558e-02
 7.47895e-02
 7.25232e-02
 7.02568e-02
 6.79905e-02
 6.57242e-02
 6.34578e-02
 6.11915e-02
 5.89252e-02
 5.66588e-02
 5.43925e-02
 5.21262e-02
 4.98598e-02
 4.75935e-02
 4.53271e-02
 4.30608e-02
 4.07944e-02
 3.85281e-02
 3.62617e-02
 3.39954e-02
 3.17290e-02
 2.94627e-02
 2.71963e-02
 2.49300e-02
 2.26636e-02
 2.03973e-02
 1.81309e-02
 1.58645e-02
 1.35982e-02
 1.13318e-02
 9.06545e-03
 6.79909e-03
 4.53273e-03
 2.26636e-03
 1.00000e-60
)


51
(
 1.00000e-60
 3.80316e-02
 7.32669e-02
 9.56377e-02
 1.03474e-01
 1.01553e-01
 1.01192e-01
 9.92365e-02
 9.70385e-02
 9.47628e-02
 9.24630e-02
 9.01553e-02
 8.78450e-02
 8.55339e-02
 8.32224e-02
 8.09107e-02
 7.85991e-02
 7.62874e-02
 7.39757e-02
 7.16639e-02
 6.93522e-02
 6.70405e-02
 6.47288e-02
 6.24171e-02
 6.01053e-02
 5.77936e-02
 5.54819e-02
 5.31701e-02
 5.08584e-02
 4.85467e-02
 4.62349e-02
 4.39232e-02
 4.16115e-02
 3.92997e-02
 3.69880e-02
 3.46762e-02
 3.23645e-02
 3.00528e-02
 2.77410e-02
 2.54293e-02
 2.31175e-02
 2.08058e-02
 1.84940e-02
 1.61823e-02
 1.38705e-02
 1.15588e-02
 9.24701e-03
 6.93526e-03
 4.62351e-03
 2.31175e-03
 1.00000e-60
)


51
(
 1.00000e-60
 3.89060e-02
 7.49672e-02
 9.79260e-02
 1.06496e-01
 1.05259e-01
 1.03104e-01
 1.01094e-01
 9.88493e-02
 9.65293e-02
 9.41859e-02
 9.18351e-02
 8.94816e-02
 8.71274e-02
 8.47729e-02
 8.24182e-02
 8.00634e-02
 7.77087e-02
 7.53539e-02
 7.29991e-02
 7.06443e-02
 6.82896e-02
 6.59348e-02
 6.35800e-02
 6.12252e-02
 5.88704e-02
 5.65156e-02
 5.41608e-02
 5.18060e-02
 4.94512e-02
 4.70964e-02
 4.47416e-02
 4.23867e-02
 4.00319e-02
 3.76771e-02
 3.53223e-02
 3.29675e-02
 3.06127e-02
 2.82579e-02
 2.59030e-02
 2.35482e-02
 2.11934e-02
 1.88386e-02
 1.64838e-02
 1.41289e-02
 1.17741e-02
 9.41930e-03
 7.06447e-03
 4.70965e-03
 2.35482e-03
 1.00000e-60
)


51
(
 1.00000e-60
 3.97726e-02
 7.66045e-02
 1.00219e-01
 1.09388e-01
 1.08827e-01
 1.04931e-01
 1.02866e-01
 1.00575e-01
 9.82127e-02
 9.58278e-02
 9.34357e-02
 9.10412e-02
 8.86459e-02
 8.62503e-02
 8.38546e-02
 8.14588e-02
 7.90630e-02
 7.66672e-02
 7.42714e-02
 7.18756e-02
 6.94797e-02
 6.70839e-02
 6.46881e-02
 6.22922e-02
 5.98964e-02
 5.75006e-02
 5.51047e-02
 5.27089e-02
 5.03130e-02
 4.79172e-02
 4.55213e-02
 4.31255e-02
 4.07296e-02
 3.83338e-02
 3.59379e-02
 3.35421e-02
 3.11462e-02
 2.87504e-02
 2.63545e-02
 2.39586e-02
 2.15628e-02
 1.91669e-02
 1.67711e-02
 1.43752e-02
 1.19793e-02
 9.58346e-03
 7.18760e-03
 4.79173e-03
 2.39587e-03
 1.00000e-60
)


51
(
 1.00000e-60
 4.06392e-02
 7.81702e-02
 1.02522e-01
 1.12129e-01
 1.12224e-01
 1.06689e-01
 1.04575e-01
 1.02241e-01
 9.98370e-02
 9.74120e-02
 9.49801e-02
 9.25459e-02
 9.01110e-02
 8.76758e-02
 8.52404e-02
 8.28051e-02
 8.03697e-02
 7.79343e-02
 7.54989e-02
 7.30635e-02
 7.06281e-02
 6.81926e-02
 6.57572e-02
 6.33218e-02
 6.08863e-02
 5.84509e-02
 5.60155e-02
 5.35800e-02
 5.11446e-02
 4.87091e-02
 4.62737e-02
 4.38383e-02
 4.14028e-02
 3.89674e-02
 3.65319e-02
 3.40964e-02
 3.16610e-02
 2.92255e-02
 2.67901e-02
 2.43546e-02
 2.19192e-02
 1.94837e-02
 1.70482e-02
 1.46128e-02
 1.21773e-02
 9.74185e-03
 7.30639e-03
 4.87093e-03
 2.43546e-03
 1.00000e-60
)


51
(
 1.00000e-60
 4.13883e-02
 7.96558e-02
 1.04838e-01
 1.14692e-01
 1.15417e-01
 1.08347e-01
 1.06181e-01
 1.03804e-01
 1.01362e-01
 9.88991e-02
 9.64299e-02
 9.39584e-02
 9.14863e-02
 8.90139e-02
 8.65415e-02
 8.40689e-02
 8.15964e-02
 7.91238e-02
 7.66512e-02
 7.41787e-02
 7.17061e-02
 6.92335e-02
 6.67609e-02
 6.42883e-02
 6.18157e-02
 5.93431e-02
 5.68704e-02
 5.43978e-02
 5.19252e-02
 4.94526e-02
 4.69800e-02
 4.45074e-02
 4.20347e-02
 3.95621e-02
 3.70895e-02
 3.46169e-02
 3.21442e-02
 2.96716e-02
 2.71990e-02
 2.47264e-02
 2.22537e-02
 1.97811e-02
 1.73084e-02
 1.48358e-02
 1.23632e-02
 9.89054e-03
 7.41791e-03
 4.94527e-03
 2.47264e-03
 1.00000e-60
)


51
(
 1.00000e-60
 4.20910e-02
 8.10530e-02
 1.07173e-01
 1.17055e-01
 1.18372e-01
 1.09920e-01
 1.07706e-01
 1.05291e-01
 1.02812e-01
 1.00313e-01
 9.78082e-02
 9.53013e-02
 9.27938e-02
 9.02861e-02
 8.77782e-02
 8.52704e-02
 8.27625e-02
 8.02546e-02
 7.77466e-02
 7.52387e-02
 7.27308e-02
 7.02229e-02
 6.77149e-02
 6.52070e-02
 6.26991e-02
 6.01911e-02
 5.76832e-02
 5.51752e-02
 5.26673e-02
 5.01593e-02
 4.76514e-02
 4.51434e-02
 4.26354e-02
 4.01275e-02
 3.76195e-02
 3.51116e-02
 3.26036e-02
 3.00956e-02
 2.75877e-02
 2.50797e-02
 2.25717e-02
 2.00638e-02
 1.75558e-02
 1.50478e-02
 1.25399e-02
 1.00319e-02
 7.52391e-03
 5.01594e-03
 2.50797e-03
 1.00000e-60
)


51
(
 1.00000e-60
 4.27384e-02
 8.23532e-02
 1.09532e-01
 1.19193e-01
 1.21056e-01
 1.11407e-01
 1.09150e-01
 1.06696e-01
 1.04182e-01
 1.01649e-01
 9.91107e-02
 9.65703e-02
 9.40294e-02
 9.14882e-02
 8.89470e-02
 8.64057e-02
 8.38644e-02
 8.13231e-02
 7.87818e-02
 7.62405e-02
 7.36992e-02
 7.11579e-02
 6.86165e-02
 6.60752e-02
 6.35339e-02
 6.09925e-02
 5.84512e-02
 5.59098e-02
 5.33685e-02
 5.08272e-02
 4.82858e-02
 4.57445e-02
 4.32031e-02
 4.06618e-02
 3.81204e-02
 3.55790e-02
 3.30377e-02
 3.04963e-02
 2.79550e-02
 2.54136e-02
 2.28723e-02
 2.03309e-02
 1.77895e-02
 1.52482e-02
 1.27068e-02
 1.01655e-02
 7.62409e-03
 5.08273e-03
 2.54136e-03
 1.00000e-60
)


51
(
 1.00000e-60
 4.32036e-02
 8.35480e-02
 1.11918e-01
 1.21082e-01
 1.23435e-01
 1.12814e-01
 1.10509e-01
 1.08020e-01
 1.05473e-01
 1.02908e-01
 1.00338e-01
 9.77657e-02
 9.51933e-02
 9.26206e-02
 9.00479e-02
 8.74751e-02
 8.49024e-02
 8.23296e-02
 7.97569e-02
 7.71841e-02
 7.46113e-02
 7.20385e-02