/*--------------------------------*- C++ -*----------------------------------*\
| =========                 |                                                 |
| \      /  F ield          | OpenFOAM: The Open Source CFD Toolbox           |
|  \    /   O peration      | Version:  7                                     |
|   \  /    A nd            | Web:      http://www.OpenFOAM.com               |
|    \/     M anipulation   |                                                 |
\*---------------------------------------------------------------------------*/
FoamFile 
{   version     2.0;
    format      ascii;
    class       dictionary;
    location    "constant";
    object      LDMtable;
}
// * * * * * * * * * * * * * * * * * * * * * * * * * * * * * * * * * * * * * //

mu_table
51
(

51
(
 1.83493e-05
 1.81304e-05
 1.79454e-05
 1.77228e-05
 1.75145e-05
 1.73194e-05
 1.70950e-05
 1.69013e-05
 1.67117e-05
 1.65261e-05
 1.63443e-05
 1.61663e-05
 1.59918e-05
 1.58208e-05
 1.56533e-05
 1.54890e-05
 1.53280e-05
 1.51701e-05
 1.50152e-05
 1.48633e-05
 1.47142e-05
 1.45679e-05
 1.44243e-05
 1.42834e-05
 1.41451e-05
 1.40092e-05
 1.38758e-05
 1.37448e-05
 1.36161e-05
 1.34896e-05
 1.33653e-05
 1.32432e-05
 1.31231e-05
 1.30051e-05
 1.28891e-05
 1.27750e-05
 1.26628e-05
 1.25524e-05
 1.24439e-05
 1.23371e-05
 1.22320e-05
 1.21285e-05
 1.20268e-05
 1.19266e-05
 1.18279e-05
 1.17308e-05
 1.16353e-05
 1.15411e-05
 1.14483e-05
 1.13570e-05
 1.12670e-05
)


51
(
 1.83493e-05
 1.88164e-05
 1.79648e-05
 1.77459e-05
 1.75353e-05
 1.76237e-05
 1.85270e-05
 1.82204e-05
 1.79253e-05
 1.76435e-05
 1.73747e-05
 1.71181e-05
 1.68745e-05
 1.66450e-05
 1.65039e-05
 1.63012e-05
 1.61035e-05
 1.59106e-05
 1.57222e-05
 1.55382e-05
 1.53583e-05
 1.51824e-05
 1.50102e-05
 1.48417e-05
 1.46767e-05
 1.45150e-05
 1.43566e-05
 1.42012e-05
 1.40488e-05
 1.38993e-05
 1.37525e-05
 1.36084e-05
 1.34668e-05
 1.33277e-05
 1.31909e-05
 1.30565e-05
 1.29243e-05
 1.27942e-05
 1.26662e-05
 1.25401e-05
 1.24160e-05
 1.22937e-05
 1.21732e-05
 1.20545e-05
 1.19373e-05
 1.18219e-05
 1.17080e-05
 1.15956e-05
 1.14846e-05
 1.13752e-05
 1.12670e-05
)


51
(
 1.83493e-05
 1.95024e-05
 1.81440e-05
 1.79603e-05
 1.77178e-05
 1.80797e-05
 1.99591e-05
 1.95396e-05
 1.91389e-05
 1.87610e-05
 1.84050e-05
 1.80699e-05
 1.77572e-05
 1.74693e-05
 1.73545e-05
 1.71134e-05
 1.68790e-05
 1.66511e-05
 1.64293e-05
 1.62132e-05
 1.60025e-05
 1.57968e-05
 1.55961e-05
 1.54001e-05
 1.52083e-05
 1.50209e-05
 1.48373e-05
 1.46576e-05
 1.44815e-05
 1.43090e-05
 1.41396e-05
 1.39736e-05
 1.38105e-05
 1.36502e-05
 1.34928e-05
 1.33380e-05
 1.31858e-05
 1.30360e-05
 1.28885e-05
 1.27432e-05
 1.26000e-05
 1.24589e-05
 1.23197e-05
 1.21823e-05
 1.20467e-05
 1.19129e-05
 1.17807e-05
 1.16500e-05
 1.15209e-05
 1.13933e-05
 1.12670e-05
)


51
(
 1.83493e-05
 2.01884e-05
 1.85002e-05
 1.83863e-05
 1.80791e-05
 1.86270e-05
 2.13911e-05
 2.08587e-05
 2.03526e-05
 1.98784e-05
 1.94354e-05
 1.90217e-05
 1.86400e-05
 1.82935e-05
 1.82052e-05
 1.79256e-05
 1.76545e-05
 1.73917e-05
 1.71364e-05
 1.68882e-05
 1.66466e-05
 1.64113e-05
 1.61820e-05
 1.59584e-05
 1.57400e-05
 1.55267e-05
 1.53181e-05
 1.51141e-05
 1.49143e-05
 1.47187e-05
 1.45268e-05
 1.43387e-05
 1.41541e-05
 1.39728e-05
 1.37946e-05
 1.36196e-05
 1.34473e-05
 1.32778e-05
 1.31108e-05
 1.29463e-05
 1.27841e-05
 1.26240e-05
 1.24662e-05
 1.23102e-05
 1.21561e-05
 1.20040e-05
 1.18535e-05
 1.17045e-05
 1.15572e-05
 1.14115e-05
 1.12670e-05
)


51
(
 1.83493e-05
 2.08744e-05
 1.90201e-05
 1.90079e-05
 1.86056e-05
 1.92589e-05
 2.28232e-05
 2.21778e-05
 2.15662e-05
 2.09958e-05
 2.04658e-05
 1.99736e-05
 1.95227e-05
 1.91177e-05
 1.90558e-05
 1.87377e-05
 1.84301e-05
 1.81322e-05
 1.78434e-05
 1.75632e-05
 1.72908e-05
 1.70258e-05
 1.67679e-05
 1.65167e-05
 1.62716e-05
 1.60325e-05
 1.57989e-05
 1.55705e-05
 1.53470e-05
 1.51284e-05
 1.49139e-05
 1.47039e-05
 1.44978e-05
 1.42953e-05
 1.40965e-05
 1.39011e-05
 1.37088e-05
 1.35195e-05
 1.33331e-05
 1.31493e-05
 1.29681e-05
 1.27892e-05
 1.26126e-05
 1.24381e-05
 1.22655e-05
 1.20950e-05
 1.19262e-05
 1.17590e-05
 1.15935e-05
 1.14296e-05
 1.12670e-05
)


51
(
 1.83493e-05
 2.14420e-05
 1.96903e-05
 1.98089e-05
 1.92841e-05
 1.99687e-05
 2.42553e-05
 2.34970e-05
 2.27798e-05
 2.21132e-05
 2.14961e-05
 2.09254e-05
 2.04054e-05
 1.99419e-05
 1.99064e-05
 1.95499e-05
 1.92056e-05
 1.88728e-05
 1.85505e-05
 1.82381e-05
 1.79349e-05
 1.76403e-05
 1.73537e-05
 1.70750e-05
 1.68032e-05
 1.65383e-05
 1.62796e-05
 1.60269e-05
 1.57798e-05
 1.55380e-05
 1.53011e-05
 1.50691e-05
 1.48415e-05
 1.46179e-05
 1.43983e-05
 1.41826e-05
 1.39703e-05
 1.37613e-05
 1.35554e-05
 1.33524e-05
 1.31521e-05
 1.29544e-05
 1.27591e-05
 1.25660e-05
 1.23749e-05
 1.21860e-05
 1.19990e-05
 1.18135e-05
 1.16299e-05
 1.14477e-05
 1.12670e-05
)


51
(
 1.83493e-05
 2.19308e-05
 2.04975e-05
 2.07733e-05
 2.01012e-05
 2.07494e-05
 2.56873e-05
 2.48161e-05
 2.39934e-05
 2.32306e-05
 2.25265e-05
 2.18772e-05
 2.12881e-05
 2.07661e-05
 2.07571e-05
 2.03621e-05
 1.99811e-05
 1.96133e-05
 1.92576e-05
 1.89131e-05
 1.85791e-05
 1.82547e-05
 1.79396e-05
 1.76333e-05
 1.73348e-05
 1.70441e-05
 1.67604e-05
 1.64833e-05
 1.62125e-05
 1.59477e-05
 1.56882e-05
 1.54343e-05
 1.51851e-05
 1.49404e-05
 1.47002e-05
 1.44641e-05
 1.42318e-05
 1.40031e-05
 1.37777e-05
 1.35554e-05
 1.33361e-05
 1.31196e-05
 1.29055e-05
 1.26939e-05
 1.24843e-05
 1.22771e-05
 1.20717e-05
 1.18680e-05
 1.16662e-05
 1.14659e-05
 1.12670e-05
)


51
(
 1.83493e-05
 2.24393e-05
 2.14284e-05
 2.18850e-05
 2.10436e-05
 2.15943e-05
 2.71194e-05
 2.61353e-05
 2.52071e-05
 2.43480e-05
 2.35569e-05
 2.28290e-05
 2.21709e-05
 2.15903e-05
 2.16077e-05
 2.11742e-05
 2.07566e-05
 2.03538e-05
 1.99646e-05
 1.95881e-05
 1.92232e-05
 1.88692e-05
 1.85255e-05
 1.81917e-05
 1.78665e-05
 1.75499e-05
 1.72411e-05
 1.69397e-05
 1.66452e-05
 1.63574e-05
 1.60754e-05
 1.57995e-05
 1.55288e-05
 1.52630e-05
 1.50020e-05
 1.47457e-05
 1.44934e-05
 1.42449e-05
 1.40000e-05
 1.37585e-05
 1.35202e-05
 1.32847e-05
 1.30520e-05
 1.28217e-05
 1.25937e-05
 1.23681e-05
 1.21445e-05
 1.19225e-05
 1.17025e-05
 1.14840e-05
 1.12670e-05
)


51
(
 1.83493e-05
 2.29630e-05
 2.24696e-05
 2.31279e-05
 2.20978e-05
 2.24965e-05
 2.85514e-05
 2.74544e-05
 2.64207e-05
 2.54655e-05
 2.45873e-05
 2.37809e-05
 2.30536e-05
 2.24146e-05
 2.24583e-05
 2.19864e-05
 2.15322e-05
 2.10944e-05
 2.06717e-05
 2.02631e-05
 1.98674e-05
 1.94837e-05
 1.91114e-05
 1.87500e-05
 1.83981e-05
 1.80557e-05
 1.77219e-05
 1.73962e-05
 1.70780e-05
 1.67671e-05
 1.64625e-05
 1.61646e-05
 1.58725e-05
 1.55856e-05
 1.53039e-05
 1.50272e-05
 1.47549e-05
 1.44866e-05
 1.42223e-05
 1.39616e-05
 1.37042e-05
 1.34499e-05
 1.31985e-05
 1.29496e-05
 1.27031e-05
 1.24592e-05
 1.22172e-05
 1.19769e-05
 1.17388e-05
 1.15022e-05
 1.12670e-05
)


51
(
 1.83493e-05
 2.34930e-05
 2.36078e-05
 2.44859e-05
 2.32505e-05
 2.34493e-05
 2.98880e-05
 2.87735e-05
 2.76343e-05
 2.65829e-05
 2.56176e-05
 2.47327e-05
 2.39363e-05
 2.32388e-05
 2.33090e-05
 2.27986e-05
 2.23077e-05
 2.18349e-05
 2.13788e-05
 2.09380e-05
 2.05115e-05
 2.00981e-05
 1.96973e-05
 1.93083e-05
 1.89297e-05
 1.85615e-05
 1.82026e-05
 1.78526e-05
 1.75107e-05
 1.71768e-05
 1.68497e-05
 1.65298e-05
 1.62161e-05
 1.59081e-05
 1.56057e-05
 1.53087e-05
 1.50164e-05
 1.47284e-05
 1.44446e-05
 1.41646e-05
 1.38882e-05
 1.36151e-05
 1.33449e-05
 1.30775e-05
 1.28125e-05
 1.25502e-05
 1.22900e-05
 1.20314e-05
 1.17751e-05
 1.15203e-05
 1.12670e-05
)


51
(
 1.83493e-05
 2.40258e-05
 2.48297e-05
 2.59429e-05
 2.44884e-05
 2.44458e-05
 3.07020e-05
 3.00927e-05
 2.88479e-05
 2.77003e-05
 2.66480e-05
 2.56845e-05
 2.48190e-05
 2.40630e-05
 2.41596e-05
 2.36107e-05
 2.30832e-05
 2.25754e-05
 2.20858e-05
 2.16130e-05
 2.11557e-05
 2.07126e-05
 2.02831e-05
 1.98666e-05
 1.94613e-05
 1.90673e-05
 1.86834e-05
 1.83090e-05
 1.79435e-05
 1.75865e-05
 1.72368e-05
 1.68950e-05
 1.65598e-05
 1.62307e-05
 1.59076e-05
 1.55902e-05
 1.52779e-05
 1.49702e-05
 1.46669e-05
 1.43677e-05
 1.40722e-05
 1.37802e-05
 1.34914e-05
 1.32054e-05
 1.29219e-05
 1.26412e-05
 1.23627e-05
 1.20859e-05
 1.18114e-05
 1.15385e-05
 1.12670e-05
)


51
(
 1.83493e-05
 2.45591e-05
 2.61219e-05
 2.74829e-05
 2.57981e-05
 2.54792e-05
 3.15247e-05
 3.11216e-05
 3.00616e-05
 2.88177e-05
 2.76784e-05
 2.66363e-05
 2.57017e-05
 2.48872e-05
 2.50102e-05
 2.44229e-05
 2.38587e-05
 2.33160e-05
 2.27929e-05
 2.22880e-05
 2.17998e-05
 2.13271e-05
 2.08690e-05
 2.04249e-05
 1.99930e-05
 1.95731e-05
 1.91642e-05
 1.87654e-05
 1.83762e-05
 1.79962e-05
 1.76240e-05
 1.72602e-05
 1.69035e-05
 1.65532e-05
 1.62094e-05
 1.58718e-05
 1.55394e-05
 1.52120e-05
 1.48892e-05
 1.45707e-05
 1.42563e-05
 1.39454e-05
 1.36379e-05
 1.33332e-05
 1.30313e-05
 1.27323e-05
 1.24355e-05
 1.21404e-05
 1.18477e-05
 1.15566e-05
 1.12670e-05
)


51
(
 1.83493e-05
 2.50924e-05
 2.74711e-05
 2.90897e-05
 2.71662e-05
 2.65428e-05
 3.23565e-05
 3.18544e-05
 3.12752e-05
 2.99351e-05
 2.87087e-05
 2.75882e-05
 2.65845e-05
 2.57114e-05
 2.58609e-05
 2.52351e-05
 2.46342e-05
 2.40565e-05
 2.35000e-05
 2.29630e-05
 2.24440e-05
 2.19415e-05
 2.14549e-05
 2.09833e-05
 2.05246e-05
 2.00789e-05
 1.96449e-05
 1.92219e-05
 1.88089e-05
 1.84059e-05
 1.80111e-05
 1.76254e-05
 1.72471e-05
 1.68758e-05
 1.65113e-05
 1.61533e-05
 1.58009e-05
 1.54537e-05
 1.51115e-05
 1.47738e-05
 1.44403e-05
 1.41106e-05
 1.37843e-05
 1.34611e-05
 1.31406e-05
 1.28233e-05
 1.25082e-05
 1.21949e-05
 1.18840e-05
 1.15748e-05
 1.12670e-05
)


51
(
 1.83493e-05
 2.56256e-05
 2.88640e-05
 3.07472e-05
 2.85794e-05
 2.76297e-05
 3.31922e-05
 3.25937e-05
 3.20849e-05
 3.10526e-05
 2.97391e-05
 2.85400e-05
 2.74672e-05
 2.65356e-05
 2.67115e-05
 2.60473e-05
 2.54098e-05
 2.47970e-05
 2.42070e-05
 2.36379e-05
 2.30881e-05
 2.25560e-05
 2.20408e-05
 2.15416e-05
 2.10562e-05
 2.05847e-05
 2.01257e-05
 1.96783e-05
 1.92417e-05
 1.88156e-05
 1.83983e-05
 1.79906e-05
 1.75908e-05
 1.71983e-05
 1.68131e-05
 1.64348e-05
 1.60624e-05
 1.56955e-05
 1.53338e-05
 1.49769e-05
 1.46243e-05
 1.42757e-05
 1.39308e-05
 1.35890e-05
 1.32500e-05
 1.29144e-05
 1.25810e-05
 1.22494e-05
 1.19203e-05
 1.15929e-05
 1.12670e-05
)


51
(
 1.83493e-05
 2.61617e-05
 3.02872e-05
 3.24395e-05
 3.00243e-05
 2.87330e-05
 3.40312e-05
 3.33384e-05
 3.27449e-05
 3.21700e-05
 3.07695e-05
 2.94918e-05
 2.83499e-05
 2.73599e-05
 2.75621e-05
 2.68594e-05
 2.61853e-05
 2.55376e-05
 2.49141e-05
 2.43129e-05
 2.37323e-05
 2.31705e-05
 2.26267e-05
 2.20999e-05
 2.15879e-05
 2.10906e-05
 2.06064e-05
 2.01347e-05
 1.96744e-05
 1.92253e-05
 1.87854e-05
 1.83557e-05
 1.79345e-05
 1.75209e-05
 1.71150e-05
 1.67163e-05
 1.63239e-05
 1.59373e-05
 1.55561e-05
 1.51799e-05
 1.48083e-05
 1.44409e-05
 1.40772e-05
 1.37169e-05
 1.33594e-05
 1.30054e-05
 1.26537e-05
 1.23038e-05
 1.19566e-05
 1.16111e-05
 1.12670e-05
)


51
(
 1.83493e-05
 2.66985e-05
 3.17274e-05
 3.41503e-05
 3.14876e-05
 2.98460e-05
 3.48709e-05
 3.40872e-05
 3.34093e-05
 3.28330e-05
 3.17999e-05
 3.04436e-05
 2.92326e-05
 2.81841e-05
 2.84128e-05
 2.76716e-05
 2.69608e-05
 2.62781e-05
 2.56212e-05
 2.49879e-05
 2.43764e-05
 2.37849e-05
 2.32125e-05
 2.26582e-05
 2.21195e-05
 2.15964e-05
 2.10872e-05
 2.05911e-05
 2.01072e-05
 1.96350e-05
 1.91726e-05
 1.87209e-05
 1.82781e-05
 1.78434e-05
 1.74168e-05
 1.69978e-05
 1.65854e-05
 1.61791e-05
 1.57784e-05
 1.53830e-05
 1.49924e-05
 1.46061e-05
 1.42237e-05
 1.38448e-05
 1.34688e-05
 1.30965e-05
 1.27265e-05
 1.23583e-05
 1.19929e-05
 1.16292e-05
 1.12670e-05
)


51
(
 1.83493e-05
 2.72387e-05
 3.31713e-05
 3.58636e-05
 3.29559e-05
 3.09619e-05
 3.57042e-05
 3.48363e-05
 3.40760e-05
 3.34278e-05
 3.28302e-05
 3.13955e-05
 3.01154e-05
 2.90083e-05
 2.92634e-05
 2.84838e-05
 2.77363e-05
 2.70186e-05
 2.63282e-05
 2.56629e-05
 2.50206e-05
 2.43994e-05
 2.37984e-05
 2.32166e-05
 2.26511e-05
 2.21022e-05
 2.15679e-05
 2.10476e-05
 2.05399e-05
 2.00447e-05
 1.95597e-05
 1.90861e-05
 1.86218e-05
 1.81660e-05
 1.77187e-05
 1.72794e-05
 1.68469e-05
 1.64209e-05
 1.60007e-05
 1.55861e-05
 1.51764e-05
 1.47712e-05
 1.43702e-05
 1.39726e-05
 1.35782e-05
 1.31875e-05
 1.27992e-05
 1.24128e-05
 1.20292e-05
 1.16474e-05
 1.12670e-05
)


51
(
 1.83493e-05
 2.77857e-05
 3.46055e-05
 3.75633e-05
 3.44158e-05
 3.20739e-05
 3.65374e-05
 3.55865e-05
 3.47463e-05
 3.40244e-05
 3.34008e-05
 3.23473e-05
 3.09981e-05
 2.98325e-05
 3.01140e-05
 2.92959e-05
 2.85119e-05
 2.77592e-05
 2.70353e-05
 2.63379e-05
 2.56647e-05
 2.50139e-05
 2.43843e-05
 2.37749e-05
 2.31827e-05
 2.26080e-05
 2.20487e-05
 2.15040e-05
 2.09726e-05
 2.04543e-05
 1.99469e-05
 1.94513e-05
 1.89654e-05
 1.84885e-05
 1.80205e-05
 1.75609e-05
 1.71084e-05
 1.66626e-05
 1.62230e-05
 1.57891e-05
 1.53604e-05
 1.49364e-05
 1.45166e-05
 1.41005e-05
 1.36876e-05
 1.32785e-05
 1.28720e-05
 1.24673e-05
 1.20655e-05
 1.16655e-05
 1.12670e-05
)


51
(
 1.83493e-05
 2.83415e-05
 3.60166e-05
 3.92333e-05
 3.58540e-05
 3.31751e-05
 3.73520e-05
 3.63335e-05
 3.54166e-05
 3.46219e-05
 3.39352e-05
 3.32991e-05
 3.18808e-05
 3.06567e-05
 3.09647e-05
 3.01081e-05
 2.92874e-05
 2.84997e-05
 2.77424e-05
 2.70128e-05
 2.63089e-05
 2.56284e-05
 2.49702e-05
 2.43332e-05
 2.37144e-05
 2.31138e-05
 2.25294e-05
 2.19604e-05
 2.14054e-05
 2.08640e-05
 2.03340e-05
 1.98165e-05
 1.93091e-05
 1.88111e-05
 1.83224e-05
 1.78424e-05
 1.73699e-05
 1.69044e-05
 1.64453e-05
 1.59922e-05
 1.55444e-05
 1.51016e-05
 1.46631e-05
 1.42284e-05
 1.37970e-05
 1.33696e-05
 1.29447e-05
 1.25218e-05
 1.21018e-05
 1.16837e-05
 1.12670e-05
)


51
(
 1.83493e-05
 2.89030e-05
 3.73915e-05
 4.08575e-05
 3.72571e-05
 3.42588e-05
 3.81637e-05
 3.70724e-05
 3.60843e-05
 3.52187e-05
 3.44686e-05
 3.37934e-05
 3.27635e-05
 3.14809e-05
 3.18153e-05
 3.09203e-05
 3.00629e-05
 2.92403e-05
 2.84494e-05
 2.76878e-05
 2.69530e-05
 2.62428e-05
 2.55561e-05
 2.48915e-05
 2.42460e-05
 2.36196e-05
 2.30102e-05
 2.24168e-05
 2.18381e-05
 2.12737e-05
 2.07212e-05
 2.01817e-05
 1.96528e-05
 1.91336e-05
 1.86242e-05
 1.81239e-05
 1.76314e-05
 1.71462e-05
 1.66676e-05
 1.61952e-05
 1.57285e-05
 1.52667e-05
 1.48095e-05
 1.43563e-05
 1.39064e-05
 1.34606e-05
 1.30174e-05
 1.25763e-05
 1.21381e-05
 1.17018e-05
 1.12670e-05
)


51
(
 1.83493e-05
 2.94789e-05
 3.87166e-05
 4.24199e-05
 3.86118e-05
 3.53180e-05
 3.89755e-05
 3.78114e-05
 3.67506e-05
 3.58155e-05
 3.50011e-05
 3.42690e-05
 3.35904e-05
 3.23051e-05
 3.26659e-05
 3.17325e-05
 3.08384e-05
 2.99808e-05
 2.91565e-05
 2.83628e-05
 2.75972e-05
 2.68573e-05
 2.61419e-05
 2.54498e-05
 2.47776e-05
 2.41254e-05
 2.34910e-05
 2.28732e-05
 2.22709e-05
 2.16834e-05
 2.11084e-05
 2.05468e-05
 1.99964e-05
 1.94562e-05
 1.89261e-05
 1.84055e-05
 1.78929e-05
 1.73880e-05
 1.68899e-05
 1.63983e-05
 1.59125e-05
 1.54319e-05
 1.49560e-05
 1.44842e-05
 1.40158e-05
 1.35517e-05
 1.30902e-05
 1.26307e-05
 1.21744e-05
 1.17200e-05
 1.12670e-05
)


51
(
 1.83493e-05
 3.00606e-05
 3.99788e-05
 4.39043e-05
 3.99047e-05
 3.63461e-05
 3.97629e-05
 3.99504e-05
 3.83203e-05
 3.64686e-05
 3.64222e-05
 3.52611e-05
 3.40113e-05
 3.31294e-05
 3.35166e-05
 3.25446e-05
 3.16140e-05
 3.07213e-05
 2.98636e-05
 2.90378e-05
 2.82413e-05
 2.74718e-05
 2.67278e-05
 2.60082e-05
 2.53092e-05
 2.46312e-05
 2.39717e-05
 2.33297e-05
 2.27036e-05
 2.20931e-05
 2.14955e-05
 2.09120e-05
 2.03401e-05
 1.97787e-05
 1.92279e-05
 1.86870e-05
 1.81544e-05
 1.76297e-05
 1.71122e-05
 1.66014e-05
 1.60965e-05
 1.55971e-05
 1.51025e-05
 1.46120e-05
 1.41252e-05
 1.36427e-05
 1.31629e-05
 1.26852e-05
 1.22107e-05
 1.17381e-05
 1.12670e-05
)


51
(
 1.83493e-05
 3.06498e-05
 4.11646e-05
 4.52947e-05
 4.11224e-05
 3.73362e-05
 4.05487e-05
 4.25528e-05
 4.11117e-05
 3.96475e-05
 3.86118e-05
 3.73913e-05
 3.60178e-05
 3.49971e-05
 3.43672e-05
 3.33568e-05
 3.23895e-05
 3.14619e-05
 3.05706e-05
 2.97127e-05
 2.88855e-05
 2.80862e-05
 2.73137e-05
 2.65665e-05
 2.58409e-05
 2.51370e-05
 2.44525e-05
 2.37861e-05
 2.31363e-05
 2.25028e-05
 2.18827e-05
 2.12772e-05
 2.06838e-05
 2.01013e-05
 1.95298e-05
 1.89685e-05
 1.84160e-05
 1.78715e-05
 1.73345e-05
 1.68044e-05
 1.62805e-05
 1.57623e-05
 1.52489e-05
 1.47399e-05
 1.42346e-05
 1.37337e-05
 1.32357e-05
 1.27397e-05
 1.22470e-05
 1.17563e-05
 1.12670e-05
)


51
(
 1.83493e-05
 3.12503e-05
 4.22607e-05
 4.65750e-05
 4.22516e-05
 3.82815e-05
 4.42256e-05
 4.16137e-05
 3.98382e-05
 3.88401e-05
 3.90730e-05
 3.78414e-05
 3.66692e-05
 3.55530e-05
 3.44886e-05
 3.27320e-05
 3.18550e-05
 3.10275e-05
 3.06686e-05
 2.98056e-05
 2.89735e-05
 2.81696e-05
 2.73926e-05
 2.66412e-05
 2.59115e-05
 2.52037e-05
 2.45154e-05
 2.38453e-05
 2.31921e-05
 2.25551e-05
 2.19317e-05
 2.13230e-05
 2.07265e-05
 2.01410e-05
 1.95666e-05
 1.90025e-05
 1.84472e-05
 1.79001e-05
 1.73606e-05
 1.68280e-05
 1.63016e-05
 1.57810e-05
 1.52654e-05
 1.47541e-05
 1.42465e-05
 1.37436e-05
 1.32435e-05
 1.27455e-05
 1.22508e-05
 1.17582e-05
 1.12670e-05
)


51
(
 1.83493e-05
 3.18591e-05
 4.32538e-05
 4.77291e-05
 4.32789e-05
 3.91752e-05
 4.34533e-05
 4.25155e-05
 4.10931e-05
 3.97482e-05
 3.84749e-05
 3.72702e-05
 3.56617e-05
 3.45191e-05
 3.39920e-05
 3.27908e-05
 3.19645e-05
 3.10824e-05
 3.02158e-05
 2.93754e-05
 2.85626e-05
 2.77766e-05
 2.70164e-05
 2.62809e-05
 2.55665e-05
 2.48736e-05
 2.41997e-05
 2.35436e-05
 2.29039e-05
 2.22802e-05
 2.16698e-05
 2.10739e-05
 2.04900e-05
 1.99169e-05
 1.93548e-05
 1.88029e-05
 1.82598e-05
 1.77249e-05
 1.71976e-05
 1.66773e-05
 1.61634e-05
 1.56554e-05
 1.51525e-05
 1.46542e-05
 1.41599e-05
 1.36706e-05
 1.31844e-05
 1.27006e-05
 1.22205e-05
 1.17429e-05
 1.12670e-05
)


51
(
 1.83493e-05
 3.24732e-05
 4.41771e-05
 4.87744e-05
 4.42435e-05
 4.00460e-05
 4.51100e-05
 4.31830e-05
 4.17610e-05
 4.04358e-05
 3.91658e-05
 3.74036e-05
 3.67857e-05
 3.56724e-05
 3.46078e-05
 3.29498e-05
 3.26128e-05
 3.16761e-05
 3.07758e-05
 2.99091e-05
 2.90732e-05
 2.82656e-05
 2.74850e-05
 2.67299e-05
 2.59968e-05
 2.52857e-05
 2.45941e-05
 2.39209e-05
 2.32645e-05
 2.26246e-05
 2.19982e-05
 2.13866e-05
 2.07873e-05
 2.01990e-05
 1.96217e-05
 1.90548e-05
 1.84967e-05
 1.79468e-05
 1.74044e-05
 1.68688e-05
 1.63395e-05
 1.58157e-05
 1.52969e-05
 1.47823e-05
 1.42713e-05
 1.37647e-05
 1.32608e-05
 1.27588e-05
 1.22599e-05
 1.17628e-05
 1.12670e-05
)


51
(
 1.83493e-05
 3.30872e-05
 4.51221e-05
 4.97780e-05
 4.52486e-05
 4.09636e-05
 4.70406e-05
 4.22567e-05
 4.35898e-05
 4.23732e-05
 4.10136e-05
 3.97088e-05
 3.81047e-05
 3.72701e-05
 3.41403e-05
 3.46424e-05
 3.38965e-05
 3.29725e-05
 3.20385e-05
 3.11253e-05
 3.02400e-05
 2.93835e-05
 2.85555e-05
 2.77549e-05
 2.69778e-05
 2.62244e-05
 2.54921e-05
 2.47794e-05
 2.40847e-05
 2.34074e-05
 2.27446e-05
 2.20974e-05
 2.14630e-05
 2.08401e-05
 2.02286e-05
 1.96277e-05
 1.90357e-05
 1.84518e-05
 1.78753e-05
 1.73054e-05
 1.67412e-05
 1.61820e-05
 1.56271e-05
 1.50755e-05
 1.45267e-05
 1.39809e-05
 1.34364e-05
 1.28930e-05
 1.23507e-05
 1.18087e-05
 1.12670e-05
)


51
(
 1.83493e-05
 3.37021e-05
 4.60873e-05
 5.07458e-05
 4.62906e-05
 4.19231e-05
 4.86449e-05
 4.53591e-05
 4.27888e-05
 4.00294e-05
 3.88760e-05
 3.82139e-05
 3.65044e-05
 3.57165e-05
 3.43639e-05
 3.35735e-05
 3.25869e-05
 3.16448e-05
 3.07420e-05
 2.98742e-05
 2.90381e-05
 2.82308e-05
 2.74508e-05
 2.66966e-05
 2.59645e-05
 2.52544e-05
 2.45640e-05
 2.38919e-05
 2.32368e-05
 2.25981e-05
 2.19729e-05
 2.13626e-05
 2.07646e-05
 2.01775e-05
 1.96016e-05
 1.90360e-05
 1.84791e-05
 1.79305e-05
 1.73893e-05
 1.68550e-05
 1.63270e-05
 1.58045e-05
 1.52870e-05
 1.47737e-05
 1.42640e-05
 1.37586e-05
 1.32559e-05
 1.27552e-05
 1.22575e-05
 1.17616e-05
 1.12670e-05
)


51
(
 1.83493e-05
 3.43172e-05
 4.70678e-05
 5.16815e-05
 4.73619e-05
 4.29169e-05
 4.93253e-05
 4.75910e-05
 4.59132e-05
 4.43232e-05
 3.99669e-05
 3.83034e-05
 3.68016e-05
 3.56996e-05
 3.46288e-05
 3.36088e-05
 3.26308e-05
 3.16922e-05
 3.07901e-05
 2.99218e-05
 2.90845e-05
 2.82758e-05
 2.74942e-05
 2.67384e-05
 2.60046e-05
 2.52929e-05
 2.46008e-05
 2.39273e-05
 2.32706e-05
 2.26304e-05
 2.20038e-05
 2.13920e-05
 2.07925e-05
 2.02041e-05
 1.96267e-05
 1.90597e-05
 1.85015e-05
 1.79514e-05
 1.74089e-05
 1.68732e-05
 1.63437e-05
 1.58197e-05
 1.53006e-05
 1.47858e-05
 1.42745e-05
 1.37675e-05
 1.32632e-05
 1.27607e-05
 1.22612e-05
 1.17635e-05
 1.12670e-05
)


51
(
 1.83493e-05
 3.49322e-05
 4.80587e-05
 5.25887e-05
 4.84552e-05
 4.39375e-05
 4.99796e-05
 4.82121e-05
 4.65017e-05
 4.48810e-05
 4.21830e-05
 4.06410e-05
 3.91875e-05
 3.78678e-05
 3.66364e-05
 3.54744e-05
 3.43903e-05
 3.33647e-05
 3.23860e-05
 3.14472e-05
 3.05439e-05
 2.96724e-05
 2.88310e-05
 2.80180e-05
 2.72292e-05
 2.64647e-05
 2.57217e-05
 2.49989e-05
 2.42944e-05
 2.36078e-05
 2.29358e-05
 2.22799e-05
 2.16368e-05
 2.10055e-05
 2.03858e-05
 1.97767e-05
 1.91766e-05
 1.85846e-05
 1.79999e-05
 1.74216e-05
 1.68490e-05
 1.62811e-05
 1.57172e-05
 1.51564e-05
 1.45979e-05
 1.40418e-05
 1.34865e-05
 1.29317e-05
 1.23772e-05
 1.18222e-05
 1.12670e-05
)


51
(
 1.83493e-05
 3.55473e-05
 4.90552e-05
 5.34711e-05
 4.95630e-05
 4.49771e-05
 5.06295e-05
 4.88234e-05
 4.70792e-05
 4.54279e-05
 4.38693e-05
 4.24017e-05
 4.10120e-05
 3.96940e-05
 3.84415e-05
 3.72487e-05
 3.61095e-05
 3.50191e-05
 3.39731e-05
 3.29680e-05
 3.20004e-05
 3.10670e-05
 3.01663e-05
 2.92965e-05
 2.84529e-05
 2.76358e-05
 2.68420e-05
 2.60700e-05
 2.53179e-05
 2.45850e-05
 2.38678e-05
 2.31676e-05
 2.24812e-05
 2.18071e-05
 2.11451e-05
 2.04941e-05
 1.98522e-05
 1.92183e-05
 1.85916e-05
 1.79709e-05
 1.73552e-05
 1.67436e-05
 1.61349e-05
 1.55281e-05
 1.49225e-05
 1.43171e-05
 1.37109e-05
 1.31036e-05
 1.24937e-05
 1.18813e-05
 1.12670e-05
)


51
(
 1.83493e-05
 3.61500e-05
 5.00524e-05
 5.43323e-05
 5.06778e-05
 4.60284e-05
 5.12415e-05
 4.94045e-05
 4.76297e-05
 4.59496e-05
 4.43641e-05
 4.28717e-05
 4.14589e-05
 4.01194e-05
 3.88468e-05
 3.76351e-05
 3.64785e-05
 3.53719e-05
 3.43106e-05
 3.32908e-05
 3.23091e-05
 3.13624e-05
 3.04489e-05
 2.95668e-05
 2.87116e-05
 2.78832e-05
 2.70786e-05
 2.62962e-05
 2.55340e-05
 2.47913e-05
 2.40647e-05
 2.33553e-05
 2.26599e-05
 2.19769e-05
 2.13062e-05
 2.06466e-05
 1.99960e-05
 1.93536e-05
 1.87182e-05
 1.80888e-05
 1.74643e-05
 1.68436e-05
 1.62256e-05
 1.56092e-05
 1.49937e-05
 1.43779e-05
 1.37606e-05
 1.31420e-05
 1.25199e-05
 1.18946e-05
 1.12670e-05
)


51
(
 1.83493e-05
 3.67495e-05
 5.10453e-05
 5.51760e-05
 5.17920e-05
 4.70837e-05
 5.18536e-05
 4.99855e-05
 4.81790e-05
 4.64698e-05
 4.48576e-05
 4.33403e-05
 4.19045e-05
 4.05435e-05
 3.92509e-05
 3.80205e-05
 3.68465e-05
 3.57237e-05
 3.46470e-05
 3.36125e-05
 3.26169e-05
 3.16568e-05
 3.07306e-05
 2.98363e-05
 2.89694e-05
 2.81298e-05
 2.73144e-05
 2.65217e-05
 2.57494e-05
 2.49971e-05
 2.42609e-05
 2.35424e-05
 2.28380e-05
 2.21462e-05
 2.14668e-05
 2.07985e-05
 2.01394e-05
 1.94884e-05
 1.88445e-05
 1.82064e-05
 1.75730e-05
 1.69433e-05
 1.63160e-05
 1.56901e-05
 1.50647e-05
 1.44384e-05
 1.38102e-05
 1.31803e-05
 1.25460e-05
 1.19079e-05
 1.12670e-05
)


51
(
 1.83493e-05
 3.73489e-05
 5.20291e-05
 5.60057e-05
 5.28984e-05
 4.81354e-05
 5.24403e-05
 5.05382e-05
 4.87025e-05
 4.69659e-05
 4.53280e-05
 4.37870e-05
 4.23291e-05
 4.09476e-05
 3.96358e-05
 3.83874e-05
 3.71966e-05
 3.60582e-05
 3.49669e-05
 3.39186e-05
 3.29096e-05
 3.19369e-05
 3.09985e-05
 3.00926e-05
 2.92145e-05
 2.83643e-05
 2.75386e-05
 2.67360e-05
 2.59542e-05
 2.51926e-05
 2.44475e-05
 2.37202e-05
 2.30073e-05
 2.23072e-05
 2.16195e-05
 2.09431e-05
 2.02760e-05
 1.96169e-05
 1.89648e-05
 1.83185e-05
 1.76768e-05
 1.70386e-05
 1.64025e-05
 1.57676e-05
 1.51328e-05
 1.44966e-05
 1.38580e-05
 1.32171e-05
 1.25712e-05
 1.19207e-05
 1.12670e-05
)


51
(
 1.83493e-05
 3.79298e-05
 5.29989e-05
 5.68252e-05
 5.39894e-05
 4.91760e-05
 5.30157e-05
 5.10816e-05
 4.92164e-05
 4.74526e-05
 4.57895e-05
 4.42252e-05
 4.27456e-05
 4.13439e-05
 4.00132e-05
 3.87472e-05
 3.75398e-05
 3.63860e-05
 3.52804e-05
 3.42185e-05
 3.31965e-05
 3.22113e-05
 3.12610e-05
 3.03438e-05
 2.94547e-05
 2.85940e-05
 2.77583e-05
 2.69459e-05
 2.61548e-05
 2.53842e-05
 2.46303e-05
 2.38945e-05
 2.31732e-05
 2.24649e-05
 2.17692e-05
 2.10848e-05
 2.04098e-05
 1.97428e-05
 1.90827e-05
 1.84285e-05
 1.77787e-05
 1.71321e-05
 1.64875e-05
 1.58437e-05
 1.51997e-05
 1.45538e-05
 1.39049e-05
 1.32535e-05
 1.25960e-05
 1.19334e-05
 1.12670e-05
)


51
(
 1.83493e-05
 3.85092e-05
 5.39498e-05
 5.76380e-05
 5.50575e-05
 5.01978e-05
 5.35754e-05
 5.16100e-05
 4.97161e-05
 4.79258e-05
 4.62381e-05
 4.46511e-05
 4.31504e-05
 4.17289e-05
 4.03799e-05
 3.90967e-05
 3.78733e-05
 3.67043e-05
 3.55847e-05
 3.45095e-05
 3.34750e-05
 3.24776e-05
 3.15158e-05
 3.05875e-05
 2.96879e-05
 2.88170e-05
 2.79715e-05
 2.71497e-05
 2.63495e-05
 2.55700e-05
 2.48076e-05
 2.40635e-05
 2.33342e-05
 2.26179e-05
 2.19144e-05
 2.12224e-05
 2.05397e-05
 1.98651e-05
 1.91974e-05
 1.85353e-05
 1.78777e-05
 1.72231e-05
 1.65702e-05
 1.59178e-05
 1.52650e-05
 1.46096e-05
 1.39508e-05
 1.32890e-05
 1.26203e-05
 1.19458e-05
 1.12670e-05
)


51
(
 1.83493e-05
 3.90887e-05
 5.48769e-05
 5.84479e-05
 5.60952e-05
 5.11934e-05
 5.41212e-05
 5.21275e-05
 5.02063e-05
 4.83901e-05
 4.66783e-05
 4.50690e-05
 4.35475e-05
 4.21067e-05
 4.07396e-05
 3.94396e-05
 3.82002e-05
 3.70164e-05
 3.58830e-05
 3.47949e-05
 3.37479e-05
 3.27388e-05
 3.17656e-05
 3.08264e-05
 2.99164e-05
 2.90355e-05
 2.81804e-05
 2.73494e-05
 2.65402e-05
 2.57522e-05
 2.49814e-05
 2.42292e-05
 2.34919e-05
 2.27679e-05
 2.20568e-05
 2.13573e-05
 2.06671e-05
 1.99850e-05
 1.93098e-05
 1.86402e-05
 1.79749e-05
 1.73124e-05
 1.66514e-05
 1.59907e-05
 1.53292e-05
 1.46645e-05
 1.39960e-05
 1.33240e-05
 1.26443e-05
 1.19580e-05
 1.12670e-05
)


51
(
 1.83493e-05
 3.96447e-05
 5.57754e-05
 5.92585e-05
 5.70952e-05
 5.21551e-05
 5.46551e-05
 5.26310e-05
 5.06821e-05
 4.88405e-05
 4.71053e-05
 4.54742e-05
 4.39325e-05
 4.24729e-05
 4.10882e-05
 3.97718e-05
 3.85171e-05
 3.73188e-05
 3.61718e-05
 3.50711e-05
 3.40122e-05
 3.29915e-05
 3.20074e-05
 3.10577e-05
 3.01376e-05
 2.92470e-05
 2.83826e-05
 2.75427e-05
 2.67249e-05
 2.59285e-05
 2.51496e-05
 2.43896e-05
 2.36447e-05
 2.29132e-05
 2.21947e-05
 2.14879e-05
 2.07904e-05
 2.01012e-05
 1.94188e-05
 1.87419e-05
 1.80692e-05
 1.73991e-05
 1.67303e-05
 1.60615e-05
 1.53916e-05
 1.47180e-05
 1.40400e-05
 1.33581e-05
 1.26677e-05
 1.19700e-05
 1.12670e-05
)


51
(
 1.83493e-05
 4.01995e-05
 5.66403e-05
 6.00733e-05
 5.80499e-05
 5.30754e-05
 5.52161e-05
 5.31713e-05
 5.11962e-05
 4.93285e-05
 4.75689e-05
 4.59128e-05
 4.43492e-05
 4.28700e-05
 4.14672e-05
 4.01334e-05
 3.88621e-05
 3.76478e-05
 3.64855e-05
 3.53705e-05
 3.42985e-05
 3.32662e-05
 3.22704e-05
 3.13089e-05
 3.03781e-05
 2.94768e-05
 2.86022e-05
 2.77525e-05
 2.69255e-05
 2.61199e-05
 2.53329e-05
 2.45637e-05
 2.38105e-05
 2.30712e-05
 2.23447e-05
 2.16297e-05
 2.09245e-05
 2.02273e-05
 1.95370e-05
 1.88524e-05
 1.81716e-05
 1.74934e-05
 1.68163e-05
 1.61386e-05
 1.54592e-05
 1.47766e-05
 1.40882e-05
 1.33945e-05
 1.26937e-05
 1.19825e-05
 1.12670e-05
)


51
(
 1.83493e-05
 4.07543e-05
 5.74668e-05
 6.08961e-05
 5.89518e-05
 5.39467e-05
 5.57862e-05
 5.36976e-05
 5.16902e-05
 4.97955e-05
 4.80120e-05
 4.63321e-05
 4.47477e-05
 4.32496e-05
 4.18291e-05
 4.04786e-05
 3.91915e-05
 3.79620e-05
 3.67852e-05
 3.56565e-05
 3.45720e-05
 3.35284e-05
 3.25215e-05
 3.15487e-05
 3.06077e-05
 2.96961e-05
 2.88119e-05
 2.79529e-05
 2.71171e-05
 2.63027e-05
 2.55077e-05
 2.47300e-05
 2.39688e-05
 2.32220e-05
 2.24878e-05
 2.17652e-05
 2.10526e-05
 2.03478e-05
 1.96500e-05
 1.89580e-05
 1.82696e-05
 1.75836e-05
 1.68986e-05
 1.62124e-05
 1.55240e-05
 1.48327e-05
 1.41343e-05
 1.34295e-05
 1.27186e-05
 1.19946e-05
 1.12670e-05
)


51
(
 1.83493e-05
 4.12881e-05
 5.82499e-05
 6.17306e-05
 5.97936e-05
 5.47614e-05
 5.62857e-05
 5.41670e-05
 5.21332e-05
 5.02145e-05
 4.84090e-05
 4.67086e-05
 4.51052e-05
 4.35895e-05
 4.21526e-05
 4.07868e-05
 3.94852e-05
 3.82422e-05
 3.70527e-05
 3.59120e-05
 3.48164e-05
 3.37623e-05
 3.27452e-05
 3.17627e-05
 3.08123e-05
 2.98918e-05
 2.89989e-05
 2.81316e-05
 2.72879e-05
 2.64658e-05
 2.56633e-05
 2.48783e-05
 2.41100e-05
 2.33564e-05
 2.26154e-05
 2.18861e-05
 2.11668e-05
 2.04555e-05
 1.97511e-05
 1.90523e-05
 1.83572e-05
 1.76644e-05
 1.69721e-05
 1.62785e-05
 1.55823e-05
 1.48829e-05
 1.41757e-05
 1.34616e-05
 1.27407e-05
 1.20059e-05
 1.12670e-05
)


51
(
 1.83493e-05
 4.18120e-05
 5.89848e-05
 6.25802e-05
 6.05677e-05
 5.55119e-05
 5.67752e-05
 5.46265e-05
 5.25666e-05
 5.06243e-05
 4.87970e-05
 4.70766e-05
 4.54546e-05
 4.39216e-05
 4.24686e-05
 4.10877e-05
 3.97721e-05
 3.85159e-05
 3.73138e-05
 3.61614e-05
 3.50549e-05
 3.39905e-05
 3.29636e-05
 3.19716e-05
 3.10121e-05
 3.00828e-05
 2.91815e-05
 2.83061e-05
 2.74546e-05
 2.66249e-05
 2.58151e-05
 2.50231e-05
 2.42479e-05
 2.34875e-05
 2.27399e-05
 2.20041e-05
 2.12784e-05
 2.05606e-05
 1.98498e-05
 1.91446e-05
 1.84428e-05
 1.77433e-05
 1.70440e-05
 1.63432e-05
 1.56394e-05
 1.49321e-05
 1.42162e-05
 1.34930e-05
 1.27625e-05
 1.20169e-05
 1.12670e-05
)


51
(
 1.83493e-05
 4.23173e-05
 5.96666e-05
 6.34488e-05
 6.12667e-05
 5.61908e-05
 5.72549e-05
 5.50758e-05
 5.29898e-05
 5.10241e-05
 4.91754e-05
 4.74353e-05
 4.57951e-05
 4.42451e-05
 4.27764e-05
 4.13808e-05
 4.00514e-05
 3.87823e-05
 3.75681e-05
 3.64042e-05
 3.52869e-05
 3.42126e-05
 3.31760e-05
 3.21748e-05
 3.12065e-05
 3.02687e-05
 2.93592e-05
 2.84759e-05
 2.76168e-05
 2.67797e-05
 2.59628e-05
 2.51639e-05
 2.43820e-05
 2.36151e-05
 2.28611e-05
 2.21190e-05
 2.13870e-05
 2.06630e-05
 1.99459e-05
 1.92344e-05
 1.85263e-05
 1.78202e-05
 1.71142e-05
 1.64063e-05
 1.56951e-05
 1.49802e-05
 1.42559e-05
 1.35238e-05
 1.27838e-05
 1.20277e-05
 1.12670e-05
)


51
(
 1.83493e-05
 4.26564e-05
 6.02904e-05
 6.43399e-05
 6.18831e-05
 5.67903e-05
 5.77249e-05
 5.55138e-05
 5.34016e-05
 5.14128e-05
 4.95431e-05
 4.77836e-05
 4.61256e-05
 4.45591e-05
 4.30750e-05
 4.16651e-05
 4.03223e-05
 3.90406e-05
 3.78146e-05
 3.66395e-05
 3.55118e-05
 3.44277e-05
 3.33819e-05