/*--------------------------------*- C++ -*----------------------------------*\
| =========                 |                                                 |
| \      /  F ield          | OpenFOAM: The Open Source CFD Toolbox           |
|  \    /   O peration      | Version:  7                                     |
|   \  /    A nd            | Web:      http://www.OpenFOAM.com               |
|    \/     M anipulation   |                                                 |
\*---------------------------------------------------------------------------*/
FoamFile 
{   version     2.0;
    format      ascii;
    class       dictionary;
    location    "constant";
    object      LDMtable;
}
// * * * * * * * * * * * * * * * * * * * * * * * * * * * * * * * * * * * * * //

N2_table
51
(

51
(
 7.67118e-01
 7.51776e-01
 7.36951e-01
 7.20814e-01
 7.05369e-01
 6.90571e-01
 6.75064e-01
 6.59721e-01
 6.44379e-01
 6.29037e-01
 6.13694e-01
 5.98352e-01
 5.83010e-01
 5.67667e-01
 5.52325e-01
 5.36983e-01
 5.21640e-01
 5.06298e-01
 4.90955e-01
 4.75613e-01
 4.60271e-01
 4.44928e-01
 4.29586e-01
 4.14244e-01
 3.98901e-01
 3.83559e-01
 3.68217e-01
 3.52874e-01
 3.37532e-01
 3.22190e-01
 3.06847e-01
 2.91505e-01
 2.76162e-01
 2.60820e-01
 2.45478e-01
 2.30135e-01
 2.14793e-01
 1.99451e-01
 1.84108e-01
 1.68766e-01
 1.53424e-01
 1.38081e-01
 1.22739e-01
 1.07397e-01
 9.20541e-02
 7.67118e-02
 6.13694e-02
 4.60271e-02
 3.06847e-02
 1.53424e-02
 1.00000e-60
)


51
(
 7.67118e-01
 7.51776e-01
 7.36950e-01
 7.20811e-01
 7.05290e-01
 6.89970e-01
 6.75064e-01
 6.59721e-01
 6.44379e-01
 6.29037e-01
 6.13694e-01
 5.98352e-01
 5.83010e-01
 5.67667e-01
 5.52325e-01
 5.36983e-01
 5.21640e-01
 5.06298e-01
 4.90955e-01
 4.75613e-01
 4.60271e-01
 4.44928e-01
 4.29586e-01
 4.14244e-01
 3.98901e-01
 3.83559e-01
 3.68217e-01
 3.52874e-01
 3.37532e-01
 3.22190e-01
 3.06847e-01
 2.91505e-01
 2.76162e-01
 2.60820e-01
 2.45478e-01
 2.30135e-01
 2.14793e-01
 1.99451e-01
 1.84108e-01
 1.68766e-01
 1.53424e-01
 1.38081e-01
 1.22739e-01
 1.07397e-01
 9.20541e-02
 7.67118e-02
 6.13694e-02
 4.60271e-02
 3.06847e-02
 1.53424e-02
 1.00000e-60
)


51
(
 7.67118e-01
 7.51776e-01
 7.36948e-01
 7.20782e-01
 7.05167e-01
 6.89593e-01
 6.75064e-01
 6.59721e-01
 6.44379e-01
 6.29037e-01
 6.13694e-01
 5.98352e-01
 5.83010e-01
 5.67667e-01
 5.52325e-01
 5.36983e-01
 5.21640e-01
 5.06298e-01
 4.90955e-01
 4.75613e-01
 4.60271e-01
 4.44928e-01
 4.29586e-01
 4.14244e-01
 3.98901e-01
 3.83559e-01
 3.68217e-01
 3.52874e-01
 3.37532e-01
 3.22190e-01
 3.06847e-01
 2.91505e-01
 2.76162e-01
 2.60820e-01
 2.45478e-01
 2.30135e-01
 2.14793e-01
 1.99451e-01
 1.84108e-01
 1.68766e-01
 1.53424e-01
 1.38081e-01
 1.22739e-01
 1.07397e-01
 9.20541e-02
 7.67118e-02
 6.13694e-02
 4.60271e-02
 3.06847e-02
 1.53424e-02
 1.00000e-60
)


51
(
 7.67118e-01
 7.51776e-01
 7.36943e-01
 7.20727e-01
 7.05011e-01
 6.89231e-01
 6.75064e-01
 6.59721e-01
 6.44379e-01
 6.29037e-01
 6.13694e-01
 5.98352e-01
 5.83010e-01
 5.67667e-01
 5.52325e-01
 5.36983e-01
 5.21640e-01
 5.06298e-01
 4.90955e-01
 4.75613e-01
 4.60271e-01
 4.44928e-01
 4.29586e-01
 4.14244e-01
 3.98901e-01
 3.83559e-01
 3.68217e-01
 3.52874e-01
 3.37532e-01
 3.22190e-01
 3.06847e-01
 2.91505e-01
 2.76162e-01
 2.60820e-01
 2.45478e-01
 2.30135e-01
 2.14793e-01
 1.99451e-01
 1.84108e-01
 1.68766e-01
 1.53424e-01
 1.38081e-01
 1.22739e-01
 1.07397e-01
 9.20541e-02
 7.67118e-02
 6.13694e-02
 4.60271e-02
 3.06847e-02
 1.53424e-02
 1.00000e-60
)


51
(
 7.67118e-01
 7.51776e-01
 7.36937e-01
 7.20647e-01
 7.04827e-01
 6.88885e-01
 6.75064e-01
 6.59721e-01
 6.44379e-01
 6.29037e-01
 6.13694e-01
 5.98352e-01
 5.83010e-01
 5.67667e-01
 5.52325e-01
 5.36983e-01
 5.21640e-01
 5.06298e-01
 4.90955e-01
 4.75613e-01
 4.60271e-01
 4.44928e-01
 4.29586e-01
 4.14244e-01
 3.98901e-01
 3.83559e-01
 3.68217e-01
 3.52874e-01
 3.37532e-01
 3.22190e-01
 3.06847e-01
 2.91505e-01
 2.76162e-01
 2.60820e-01
 2.45478e-01
 2.30135e-01
 2.14793e-01
 1.99451e-01
 1.84108e-01
 1.68766e-01
 1.53424e-01
 1.38081e-01
 1.22739e-01
 1.07397e-01
 9.20541e-02
 7.67118e-02
 6.13694e-02
 4.60271e-02
 3.06847e-02
 1.53424e-02
 1.00000e-60
)


51
(
 7.67118e-01
 7.51776e-01
 7.36930e-01
 7.20546e-01
 7.04617e-01
 6.88555e-01
 6.75064e-01
 6.59721e-01
 6.44379e-01
 6.29037e-01
 6.13694e-01
 5.98352e-01
 5.83010e-01
 5.67667e-01
 5.52325e-01
 5.36983e-01
 5.21640e-01
 5.06298e-01
 4.90955e-01
 4.75613e-01
 4.60271e-01
 4.44928e-01
 4.29586e-01
 4.14244e-01
 3.98901e-01
 3.83559e-01
 3.68217e-01
 3.52874e-01
 3.37532e-01
 3.22190e-01
 3.06847e-01
 2.91505e-01
 2.76162e-01
 2.60820e-01
 2.45478e-01
 2.30135e-01
 2.14793e-01
 1.99451e-01
 1.84108e-01
 1.68766e-01
 1.53424e-01
 1.38081e-01
 1.22739e-01
 1.07397e-01
 9.20541e-02
 7.67118e-02
 6.13694e-02
 4.60271e-02
 3.06847e-02
 1.53424e-02
 1.00000e-60
)


51
(
 7.67118e-01
 7.51776e-01
 7.36921e-01
 7.20425e-01
 7.04386e-01
 6.88241e-01
 6.75064e-01
 6.59721e-01
 6.44379e-01
 6.29037e-01
 6.13694e-01
 5.98352e-01
 5.83010e-01
 5.67667e-01
 5.52325e-01
 5.36983e-01
 5.21640e-01
 5.06298e-01
 4.90955e-01
 4.75613e-01
 4.60271e-01
 4.44928e-01
 4.29586e-01
 4.14244e-01
 3.98901e-01
 3.83559e-01
 3.68217e-01
 3.52874e-01
 3.37532e-01
 3.22190e-01
 3.06847e-01
 2.91505e-01
 2.76162e-01
 2.60820e-01
 2.45478e-01
 2.30135e-01
 2.14793e-01
 1.99451e-01
 1.84108e-01
 1.68766e-01
 1.53424e-01
 1.38081e-01
 1.22739e-01
 1.07397e-01
 9.20541e-02
 7.67118e-02
 6.13694e-02
 4.60271e-02
 3.06847e-02
 1.53424e-02
 1.00000e-60
)


51
(
 7.67118e-01
 7.51776e-01
 7.36911e-01
 7.20287e-01
 7.04137e-01
 6.87943e-01
 6.75064e-01
 6.59721e-01
 6.44379e-01
 6.29037e-01
 6.13694e-01
 5.98352e-01
 5.83010e-01
 5.67667e-01
 5.52325e-01
 5.36983e-01
 5.21640e-01
 5.06298e-01
 4.90955e-01
 4.75613e-01
 4.60271e-01
 4.44928e-01
 4.29586e-01
 4.14244e-01
 3.98901e-01
 3.83559e-01
 3.68217e-01
 3.52874e-01
 3.37532e-01
 3.22190e-01
 3.06847e-01
 2.91505e-01
 2.76162e-01
 2.60820e-01
 2.45478e-01
 2.30135e-01
 2.14793e-01
 1.99451e-01
 1.84108e-01
 1.68766e-01
 1.53424e-01
 1.38081e-01
 1.22739e-01
 1.07396e-01
 9.20541e-02
 7.67118e-02
 6.13694e-02
 4.60271e-02
 3.06847e-02
 1.53424e-02
 1.00000e-60
)


51
(
 7.67118e-01
 7.51776e-01
 7.36900e-01
 7.20136e-01
 7.03872e-01
 6.87660e-01
 6.75064e-01
 6.59721e-01
 6.44379e-01
 6.29037e-01
 6.13694e-01
 5.98352e-01
 5.83010e-01
 5.67667e-01
 5.52325e-01
 5.36982e-01
 5.21640e-01
 5.06298e-01
 4.90955e-01
 4.75613e-01
 4.60271e-01
 4.44928e-01
 4.29586e-01
 4.14244e-01
 3.98901e-01
 3.83559e-01
 3.68217e-01
 3.52874e-01
 3.37532e-01
 3.22190e-01
 3.06847e-01
 2.91505e-01
 2.76162e-01
 2.60820e-01
 2.45478e-01
 2.30135e-01
 2.14793e-01
 1.99451e-01
 1.84108e-01
 1.68766e-01
 1.53424e-01
 1.38081e-01
 1.22739e-01
 1.07396e-01
 9.20541e-02
 7.67118e-02
 6.13694e-02
 4.60271e-02
 3.06847e-02
 1.53424e-02
 1.00000e-60
)


51
(
 7.67118e-01
 7.51776e-01
 7.36889e-01
 7.19972e-01
 7.03597e-01
 6.87394e-01
 6.75064e-01
 6.59721e-01
 6.44379e-01
 6.29037e-01
 6.13694e-01
 5.98352e-01
 5.83010e-01
 5.67667e-01
 5.52325e-01
 5.36982e-01
 5.21640e-01
 5.06298e-01
 4.90955e-01
 4.75613e-01
 4.60271e-01
 4.44928e-01
 4.29586e-01
 4.14244e-01
 3.98901e-01
 3.83559e-01
 3.68217e-01
 3.52874e-01
 3.37532e-01
 3.22190e-01
 3.06847e-01
 2.91505e-01
 2.76162e-01
 2.60820e-01
 2.45478e-01
 2.30135e-01
 2.14793e-01
 1.99451e-01
 1.84108e-01
 1.68766e-01
 1.53424e-01
 1.38081e-01
 1.22739e-01
 1.07396e-01
 9.20541e-02
 7.67118e-02
 6.13694e-02
 4.60271e-02
 3.06847e-02
 1.53424e-02
 1.00000e-60
)


51
(
 7.67118e-01
 7.51776e-01
 7.36876e-01
 7.19801e-01
 7.03313e-01
 6.87144e-01
 6.75064e-01
 6.59721e-01
 6.44379e-01
 6.29037e-01
 6.13694e-01
 5.98352e-01
 5.83010e-01
 5.67667e-01
 5.52325e-01
 5.36982e-01
 5.21640e-01
 5.06298e-01
 4.90955e-01
 4.75613e-01
 4.60271e-01
 4.44928e-01
 4.29586e-01
 4.14244e-01
 3.98901e-01
 3.83559e-01
 3.68217e-01
 3.52874e-01
 3.37532e-01
 3.22190e-01
 3.06847e-01
 2.91505e-01
 2.76162e-01
 2.60820e-01
 2.45478e-01
 2.30135e-01
 2.14793e-01
 1.99451e-01
 1.84108e-01
 1.68766e-01
 1.53424e-01
 1.38081e-01
 1.22739e-01
 1.07396e-01
 9.20541e-02
 7.67118e-02
 6.13694e-02
 4.60271e-02
 3.06847e-02
 1.53424e-02
 1.00000e-60
)


51
(
 7.67118e-01
 7.51776e-01
 7.36864e-01
 7.19623e-01
 7.03025e-01
 6.86911e-01
 6.75064e-01
 6.59721e-01
 6.44379e-01
 6.29037e-01
 6.13694e-01
 5.98352e-01
 5.83010e-01
 5.67667e-01
 5.52325e-01
 5.36982e-01
 5.21640e-01
 5.06298e-01
 4.90955e-01
 4.75613e-01
 4.60271e-01
 4.44928e-01
 4.29586e-01
 4.14244e-01
 3.98901e-01
 3.83559e-01
 3.68217e-01
 3.52874e-01
 3.37532e-01
 3.22190e-01
 3.06847e-01
 2.91505e-01
 2.76162e-01
 2.60820e-01
 2.45478e-01
 2.30135e-01
 2.14793e-01
 1.99451e-01
 1.84108e-01
 1.68766e-01
 1.53424e-01
 1.38081e-01
 1.22739e-01
 1.07396e-01
 9.20541e-02
 7.67118e-02
 6.13694e-02
 4.60271e-02
 3.06847e-02
 1.53424e-02
 1.00000e-60
)


51
(
 7.67118e-01
 7.51776e-01
 7.36851e-01
 7.19441e-01
 7.02736e-01
 6.86694e-01
 6.75064e-01
 6.59721e-01
 6.44379e-01
 6.29037e-01
 6.13694e-01
 5.98352e-01
 5.83010e-01
 5.67667e-01
 5.52325e-01
 5.36982e-01
 5.21640e-01
 5.06298e-01
 4.90955e-01
 4.75613e-01
 4.60271e-01
 4.44928e-01
 4.29586e-01
 4.14244e-01
 3.98901e-01
 3.83559e-01
 3.68217e-01
 3.52874e-01
 3.37532e-01
 3.22190e-01
 3.06847e-01
 2.91505e-01
 2.76162e-01
 2.60820e-01
 2.45478e-01
 2.30135e-01
 2.14793e-01
 1.99451e-01
 1.84108e-01
 1.68766e-01
 1.53424e-01
 1.38081e-01
 1.22739e-01
 1.07396e-01
 9.20541e-02
 7.67118e-02
 6.13694e-02
 4.60271e-02
 3.06847e-02
 1.53424e-02
 1.00000e-60
)


51
(
 7.67118e-01
 7.51776e-01
 7.36838e-01
 7.19258e-01
 7.02449e-01
 6.86493e-01
 6.75064e-01
 6.59721e-01
 6.44379e-01
 6.29037e-01
 6.13694e-01
 5.98352e-01
 5.83010e-01
 5.67667e-01
 5.52325e-01
 5.36982e-01
 5.21640e-01
 5.06298e-01
 4.90955e-01
 4.75613e-01
 4.60271e-01
 4.44928e-01
 4.29586e-01
 4.14244e-01
 3.98901e-01
 3.83559e-01
 3.68217e-01
 3.52874e-01
 3.37532e-01
 3.22190e-01
 3.06847e-01
 2.91505e-01
 2.76162e-01
 2.60820e-01
 2.45478e-01
 2.30135e-01
 2.14793e-01
 1.99451e-01
 1.84108e-01
 1.68766e-01
 1.53424e-01
 1.38081e-01
 1.22739e-01
 1.07396e-01
 9.20541e-02
 7.67118e-02
 6.13694e-02
 4.60271e-02
 3.06847e-02
 1.53424e-02
 1.00000e-60
)


51
(
 7.67118e-01
 7.51776e-01
 7.36825e-01
 7.19077e-01
 7.02168e-01
 6.86310e-01
 6.75064e-01
 6.59721e-01
 6.44379e-01
 6.29037e-01
 6.13694e-01
 5.98352e-01
 5.83010e-01
 5.67667e-01
 5.52325e-01
 5.36982e-01
 5.21640e-01
 5.06298e-01
 4.90955e-01
 4.75613e-01
 4.60271e-01
 4.44928e-01
 4.29586e-01
 4.14244e-01
 3.98901e-01
 3.83559e-01
 3.68217e-01
 3.52874e-01
 3.37532e-01
 3.22189e-01
 3.06847e-01
 2.91505e-01
 2.76162e-01
 2.60820e-01
 2.45478e-01
 2.30135e-01
 2.14793e-01
 1.99451e-01
 1.84108e-01
 1.68766e-01
 1.53424e-01
 1.38081e-01
 1.22739e-01
 1.07396e-01
 9.20541e-02
 7.67118e-02
 6.13694e-02
 4.60271e-02
 3.06847e-02
 1.53424e-02
 1.00000e-60
)


51
(
 7.67118e-01
 7.51776e-01
 7.36812e-01
 7.18900e-01
 7.01897e-01
 6.86142e-01
 6.75064e-01
 6.59721e-01
 6.44379e-01
 6.29037e-01
 6.13694e-01
 5.98352e-01
 5.83010e-01
 5.67667e-01
 5.52325e-01
 5.36982e-01
 5.21640e-01
 5.06298e-01
 4.90955e-01
 4.75613e-01
 4.60271e-01
 4.44928e-01
 4.29586e-01
 4.14244e-01
 3.98901e-01
 3.83559e-01
 3.68217e-01
 3.52874e-01
 3.37532e-01
 3.22189e-01
 3.06847e-01
 2.91505e-01
 2.76162e-01
 2.60820e-01
 2.45478e-01
 2.30135e-01
 2.14793e-01
 1.99451e-01
 1.84108e-01
 1.68766e-01
 1.53424e-01
 1.38081e-01
 1.22739e-01
 1.07396e-01
 9.20541e-02
 7.67118e-02
 6.13694e-02
 4.60271e-02
 3.06847e-02
 1.53424e-02
 1.00000e-60
)


51
(
 7.67118e-01
 7.51776e-01
 7.36800e-01
 7.18731e-01
 7.01639e-01
 6.85992e-01
 6.75064e-01
 6.59721e-01
 6.44379e-01
 6.29037e-01
 6.13694e-01
 5.98352e-01
 5.83010e-01
 5.67667e-01
 5.52325e-01
 5.36982e-01
 5.21640e-01
 5.06298e-01
 4.90955e-01
 4.75613e-01
 4.60271e-01
 4.44928e-01
 4.29586e-01
 4.14244e-01
 3.98901e-01
 3.83559e-01
 3.68217e-01
 3.52874e-01
 3.37532e-01
 3.22189e-01
 3.06847e-01
 2.91505e-01
 2.76162e-01
 2.60820e-01
 2.45478e-01
 2.30135e-01
 2.14793e-01
 1.99451e-01
 1.84108e-01
 1.68766e-01
 1.53424e-01
 1.38081e-01
 1.22739e-01
 1.07396e-01
 9.20541e-02
 7.67118e-02
 6.13694e-02
 4.60271e-02
 3.06847e-02
 1.53424e-02
 1.00000e-60
)


51
(
 7.67118e-01
 7.51776e-01
 7.36789e-01
 7.18570e-01
 7.01397e-01
 6.85859e-01
 6.75064e-01
 6.59721e-01
 6.44379e-01
 6.29037e-01
 6.13694e-01
 5.98352e-01
 5.83010e-01
 5.67667e-01
 5.52325e-01
 5.36982e-01
 5.21640e-01
 5.06298e-01
 4.90955e-01
 4.75613e-01
 4.60271e-01
 4.44928e-01
 4.29586e-01
 4.14244e-01
 3.98901e-01
 3.83559e-01
 3.68217e-01
 3.52874e-01
 3.37532e-01
 3.22189e-01
 3.06847e-01
 2.91505e-01
 2.76162e-01
 2.60820e-01
 2.45478e-01
 2.30135e-01
 2.14793e-01
 1.99451e-01
 1.84108e-01
 1.68766e-01
 1.53424e-01
 1.38081e-01
 1.22739e-01
 1.07396e-01
 9.20541e-02
 7.67118e-02
 6.13694e-02
 4.60271e-02
 3.06847e-02
 1.53424e-02
 1.00000e-60
)


51
(
 7.67118e-01
 7.51776e-01
 7.36779e-01
 7.18422e-01
 7.01174e-01
 6.85742e-01
 6.75064e-01
 6.59721e-01
 6.44379e-01
 6.29037e-01
 6.13694e-01
 5.98352e-01
 5.83010e-01
 5.67667e-01
 5.52325e-01
 5.36982e-01
 5.21640e-01
 5.06298e-01
 4.90955e-01
 4.75613e-01
 4.60271e-01
 4.44928e-01
 4.29586e-01
 4.14244e-01
 3.98901e-01
 3.83559e-01
 3.68217e-01
 3.52874e-01
 3.37532e-01
 3.22189e-01
 3.06847e-01
 2.91505e-01
 2.76162e-01
 2.60820e-01
 2.45478e-01
 2.30135e-01
 2.14793e-01
 1.99451e-01
 1.84108e-01
 1.68766e-01
 1.53424e-01
 1.38081e-01
 1.22739e-01
 1.07396e-01
 9.20541e-02
 7.67118e-02
 6.13694e-02
 4.60271e-02
 3.06847e-02
 1.53424e-02
 1.00000e-60
)


51
(
 7.67118e-01
 7.51776e-01
 7.36769e-01
 7.18288e-01
 7.00975e-01
 6.85643e-01
 6.75064e-01
 6.59721e-01
 6.44379e-01
 6.29037e-01
 6.13694e-01
 5.98352e-01
 5.83010e-01
 5.67667e-01
 5.52325e-01
 5.36982e-01
 5.21640e-01
 5.06298e-01
 4.90955e-01
 4.75613e-01
 4.60271e-01
 4.44928e-01
 4.29586e-01
 4.14244e-01
 3.98901e-01
 3.83559e-01
 3.68217e-01
 3.52874e-01
 3.37532e-01
 3.22189e-01
 3.06847e-01
 2.91505e-01
 2.76162e-01
 2.60820e-01
 2.45478e-01
 2.30135e-01
 2.14793e-01
 1.99451e-01
 1.84108e-01
 1.68766e-01
 1.53424e-01
 1.38081e-01
 1.22739e-01
 1.07396e-01
 9.20541e-02
 7.67118e-02
 6.13694e-02
 4.60271e-02
 3.06847e-02
 1.53424e-02
 1.00000e-60
)


51
(
 7.67118e-01
 7.51776e-01
 7.36761e-01
 7.18171e-01
 7.00803e-01
 6.85560e-01
 6.75064e-01
 6.59721e-01
 6.44379e-01
 6.29037e-01
 6.13694e-01
 5.98352e-01
 5.83010e-01
 5.67667e-01
 5.52325e-01
 5.36982e-01
 5.21640e-01
 5.06298e-01
 4.90955e-01
 4.75613e-01
 4.60271e-01
 4.44928e-01
 4.29586e-01
 4.14244e-01
 3.98901e-01
 3.83559e-01
 3.68217e-01
 3.52874e-01
 3.37532e-01
 3.22189e-01
 3.06847e-01
 2.91505e-01
 2.76162e-01
 2.60820e-01
 2.45478e-01
 2.30135e-01
 2.14793e-01
 1.99451e-01
 1.84108e-01
 1.68766e-01
 1.53424e-01
 1.38081e-01
 1.22739e-01
 1.07396e-01
 9.20541e-02
 7.67118e-02
 6.13694e-02
 4.60271e-02
 3.06847e-02
 1.53424e-02
 1.00000e-60
)


51
(
 7.67118e-01
 7.51776e-01
 7.36754e-01
 7.18075e-01
 7.00661e-01
 6.85495e-01
 6.75064e-01
 6.59721e-01
 6.44379e-01
 6.29037e-01
 6.13694e-01
 5.98352e-01
 5.83010e-01
 5.67667e-01
 5.52325e-01
 5.36982e-01
 5.21640e-01
 5.06298e-01
 4.90955e-01
 4.75613e-01
 4.60271e-01
 4.44928e-01
 4.29586e-01
 4.14244e-01
 3.98901e-01
 3.83559e-01
 3.68217e-01
 3.52874e-01
 3.37532e-01
 3.22189e-01
 3.06847e-01
 2.91505e-01
 2.76162e-01
 2.60820e-01
 2.45478e-01
 2.30135e-01
 2.14793e-01
 1.99451e-01
 1.84108e-01
 1.68766e-01
 1.53424e-01
 1.38081e-01
 1.22739e-01
 1.07396e-01
 9.20541e-02
 7.67118e-02
 6.13694e-02
 4.60271e-02
 3.06847e-02
 1.53424e-02
 1.00000e-60
)


51
(
 7.67118e-01
 7.51776e-01
 7.36749e-01
 7.18001e-01
 7.00552e-01
 6.85448e-01
 6.75064e-01
 6.59721e-01
 6.44379e-01
 6.29037e-01
 6.13694e-01
 5.98352e-01
 5.83010e-01
 5.67667e-01
 5.52325e-01
 5.36982e-01
 5.21640e-01
 5.06298e-01
 4.90955e-01
 4.75613e-01
 4.60271e-01
 4.44928e-01
 4.29586e-01
 4.14244e-01
 3.98901e-01
 3.83559e-01
 3.68217e-01
 3.52874e-01
 3.37532e-01
 3.22189e-01
 3.06847e-01
 2.91505e-01
 2.76162e-01
 2.60820e-01
 2.45478e-01
 2.30135e-01
 2.14793e-01
 1.99451e-01
 1.84108e-01
 1.68766e-01
 1.53424e-01
 1.38081e-01
 1.22739e-01
 1.07396e-01
 9.20541e-02
 7.67118e-02
 6.13694e-02
 4.60271e-02
 3.06847e-02
 1.53424e-02
 1.00000e-60
)


51
(
 7.67118e-01
 7.51776e-01
 7.36745e-01
 7.17952e-01
 7.00481e-01
 6.85418e-01
 6.75064e-01
 6.59721e-01
 6.44379e-01
 6.29037e-01
 6.13694e-01
 5.98352e-01
 5.83010e-01
 5.67667e-01
 5.52325e-01
 5.36983e-01
 5.21640e-01
 5.06298e-01
 4.90955e-01
 4.75613e-01
 4.60271e-01
 4.44928e-01
 4.29586e-01
 4.14244e-01
 3.98901e-01
 3.83559e-01
 3.68217e-01
 3.52874e-01
 3.37532e-01
 3.22189e-01
 3.06847e-01
 2.91505e-01
 2.76162e-01
 2.60820e-01
 2.45478e-01
 2.30135e-01
 2.14793e-01
 1.99451e-01
 1.84108e-01
 1.68766e-01
 1.53424e-01
 1.38081e-01
 1.22739e-01
 1.07396e-01
 9.20541e-02
 7.67118e-02
 6.13694e-02
 4.60271e-02
 3.06847e-02
 1.53424e-02
 1.00000e-60
)


51
(
 7.67118e-01
 7.51776e-01
 7.36744e-01
 7.17930e-01
 7.00450e-01
 6.85405e-01
 6.75064e-01
 6.59721e-01
 6.44379e-01
 6.29037e-01
 6.13694e-01
 5.98352e-01
 5.83010e-01
 5.67667e-01
 5.52325e-01
 5.36983e-01
 5.21640e-01
 5.06298e-01
 4.90955e-01
 4.75613e-01
 4.60271e-01
 4.44928e-01
 4.29586e-01
 4.14244e-01
 3.98901e-01
 3.83559e-01
 3.68217e-01
 3.52874e-01
 3.37532e-01
 3.22189e-01
 3.06847e-01
 2.91505e-01
 2.76162e-01
 2.60820e-01
 2.45478e-01
 2.30135e-01
 2.14793e-01
 1.99451e-01
 1.84108e-01
 1.68766e-01
 1.53424e-01
 1.38081e-01
 1.22739e-01
 1.07396e-01
 9.20541e-02
 7.67118e-02
 6.13694e-02
 4.60271e-02
 3.06847e-02
 1.53424e-02
 1.00000e-60
)


51
(
 7.67118e-01
 7.51776e-01
 7.36745e-01
 7.17939e-01
 7.00464e-01
 6.85421e-01
 6.75064e-01
 6.59721e-01
 6.44379e-01
 6.29037e-01
 6.13694e-01
 5.98352e-01
 5.83010e-01
 5.67667e-01
 5.52325e-01
 5.36983e-01
 5.21640e-01
 5.06298e-01
 4.90955e-01
 4.75613e-01
 4.60271e-01
 4.44928e-01
 4.29586e-01
 4.14244e-01
 3.98901e-01
 3.83559e-01
 3.68217e-01
 3.52874e-01
 3.37532e-01
 3.22189e-01
 3.06847e-01
 2.91505e-01
 2.76162e-01
 2.60820e-01
 2.45478e-01
 2.30135e-01
 2.14793e-01
 1.99451e-01
 1.84108e-01
 1.68766e-01
 1.53424e-01
 1.38081e-01
 1.22739e-01
 1.07396e-01
 9.20541e-02
 7.67118e-02
 6.13694e-02
 4.60271e-02
 3.06847e-02
 1.53424e-02
 1.00000e-60
)


51
(
 7.67118e-01
 7.51776e-01
 7.36748e-01
 7.17975e-01
 7.00523e-01
 6.85485e-01
 6.75063e-01
 6.59721e-01
 6.44379e-01
 6.29036e-01
 6.13694e-01
 5.98352e-01
 5.83009e-01
 5.67667e-01
 5.52325e-01
 5.36982e-01
 5.21640e-01
 5.06298e-01
 4.90955e-01
 4.75613e-01
 4.60270e-01
 4.44928e-01
 4.29586e-01
 4.14243e-01
 3.98901e-01
 3.83559e-01
 3.68216e-01
 3.52874e-01
 3.37532e-01
 3.22189e-01
 3.06847e-01
 2.91505e-01
 2.76162e-01
 2.60820e-01
 2.45478e-01
 2.30135e-01
 2.14793e-01
 1.99451e-01
 1.84108e-01
 1.68766e-01
 1.53424e-01
 1.38081e-01
 1.22739e-01
 1.07396e-01
 9.20541e-02
 7.67118e-02
 6.13694e-02
 4.60271e-02
 3.06847e-02
 1.53424e-02
 1.00000e-60
)


51
(
 7.67118e-01
 7.51776e-01
 7.36755e-01
 7.18038e-01
 7.00623e-01
 6.85594e-01
 6.75063e-01
 6.59721e-01
 6.44379e-01
 6.29037e-01
 6.13694e-01
 5.98352e-01
 5.83010e-01
 5.67667e-01
 5.52325e-01
 5.36982e-01
 5.21640e-01
 5.06298e-01
 4.90955e-01
 4.75613e-01
 4.60271e-01
 4.44928e-01
 4.29586e-01
 4.14244e-01
 3.98901e-01
 3.83559e-01
 3.68217e-01
 3.52874e-01
 3.37532e-01
 3.22189e-01
 3.06847e-01
 2.91505e-01
 2.76162e-01
 2.60820e-01
 2.45478e-01
 2.30135e-01
 2.14793e-01
 1.99451e-01
 1.84108e-01
 1.68766e-01
 1.53424e-01
 1.38081e-01
 1.22739e-01
 1.07396e-01
 9.20541e-02
 7.67118e-02
 6.13694e-02
 4.60271e-02
 3.06847e-02
 1.53424e-02
 1.00000e-60
)


51
(
 7.67118e-01
 7.51776e-01
 7.36763e-01
 7.18123e-01
 7.00761e-01
 6.85744e-01
 6.75063e-01
 6.59721e-01
 6.44378e-01
 6.29036e-01
 6.13694e-01
 5.98352e-01
 5.83010e-01
 5.67667e-01
 5.52325e-01
 5.36983e-01
 5.21640e-01
 5.06298e-01
 4.90955e-01
 4.75613e-01
 4.60271e-01
 4.44928e-01
 4.29586e-01
 4.14244e-01
 3.98901e-01
 3.83559e-01
 3.68217e-01
 3.52874e-01
 3.37532e-01
 3.22189e-01
 3.06847e-01
 2.91505e-01
 2.76162e-01
 2.60820e-01
 2.45478e-01
 2.30135e-01
 2.14793e-01
 1.99451e-01
 1.84108e-01
 1.68766e-01
 1.53424e-01
 1.38081e-01
 1.22739e-01
 1.07396e-01
 9.20541e-02
 7.67118e-02
 6.13694e-02
 4.60271e-02
 3.06847e-02
 1.53424e-02
 1.00000e-60
)


51
(
 7.67118e-01
 7.51776e-01
 7.36774e-01
 7.18229e-01
 7.00932e-01
 6.85929e-01
 6.75063e-01
 6.59720e-01
 6.44378e-01
 6.29036e-01
 6.13693e-01
 5.98351e-01
 5.83009e-01
 5.67667e-01
 5.52324e-01
 5.36982e-01
 5.21640e-01
 5.06297e-01
 4.90955e-01
 4.75613e-01
 4.60270e-01
 4.44928e-01
 4.29586e-01
 4.14243e-01
 3.98901e-01
 3.83559e-01
 3.68216e-01
 3.52874e-01
 3.37532e-01
 3.22189e-01
 3.06847e-01
 2.91505e-01
 2.76162e-01
 2.60820e-01
 2.45477e-01
 2.30135e-01
 2.14793e-01
 1.99450e-01
 1.84108e-01
 1.68766e-01
 1.53423e-01
 1.38081e-01
 1.22739e-01
 1.07396e-01
 9.20541e-02
 7.67117e-02
 6.13694e-02
 4.60270e-02
 3.06847e-02
 1.53423e-02
 1.00000e-60
)


51
(
 7.67118e-01
 7.51776e-01
 7.36786e-01
 7.18353e-01
 7.01132e-01
 6.86147e-01
 6.75062e-01
 6.59720e-01
 6.44378e-01
 6.29035e-01
 6.13693e-01
 5.98351e-01
 5.83008e-01
 5.67666e-01
 5.52324e-01
 5.36981e-01
 5.21639e-01
 5.06297e-01
 4.90954e-01
 4.75612e-01
 4.60270e-01
 4.44927e-01
 4.29585e-01
 4.14243e-01
 3.98900e-01
 3.83558e-01
 3.68216e-01
 3.52873e-01
 3.37531e-01
 3.22189e-01
 3.06846e-01
 2.91504e-01
 2.76162e-01
 2.60820e-01
 2.45477e-01
 2.30135e-01
 2.14793e-01
 1.99450e-01
 1.84108e-01
 1.68766e-01
 1.53423e-01
 1.38081e-01
 1.22739e-01
 1.07396e-01
 9.20539e-02
 7.67116e-02
 6.13693e-02
 4.60270e-02
 3.06846e-02
 1.53423e-02
 1.00000e-60
)


51
(
 7.67118e-01
 7.51776e-01
 7.36801e-01
 7.18492e-01
 7.01358e-01
 6.86392e-01
 6.75062e-01
 6.59719e-01
 6.44377e-01
 6.29035e-01
 6.13693e-01
 5.98350e-01
 5.83008e-01
 5.67666e-01
 5.52323e-01
 5.36981e-01
 5.21639e-01
 5.06296e-01
 4.90954e-01
 4.75612e-01
 4.60269e-01
 4.44927e-01
 4.29585e-01
 4.14242e-01
 3.98900e-01
 3.83558e-01
 3.68215e-01
 3.52873e-01
 3.37531e-01
 3.22189e-01
 3.06846e-01
 2.91504e-01
 2.76162e-01
 2.60819e-01
 2.45477e-01
 2.30135e-01
 2.14792e-01
 1.99450e-01
 1.84108e-01
 1.68765e-01
 1.53423e-01
 1.38081e-01
 1.22739e-01
 1.07396e-01
 9.20539e-02
 7.67116e-02
 6.13693e-02
 4.60269e-02
 3.06846e-02
 1.53423e-02
 1.00000e-60
)


51
(
 7.67118e-01
 7.51776e-01
 7.36816e-01
 7.18645e-01
 7.01605e-01
 6.86660e-01
 6.75061e-01
 6.59719e-01
 6.44377e-01
 6.29034e-01
 6.13692e-01
 5.98350e-01
 5.83007e-01
 5.67665e-01
 5.52323e-01
 5.36980e-01
 5.21638e-01
 5.06296e-01
 4.90954e-01
 4.75611e-01
 4.60269e-01
 4.44927e-01
 4.29584e-01
 4.14242e-01
 3.98900e-01
 3.83557e-01
 3.68215e-01
 3.52873e-01
 3.37531e-01
 3.22188e-01
 3.06846e-01
 2.91504e-01
 2.76161e-01
 2.60819e-01
 2.45477e-01
 2.30135e-01
 2.14792e-01
 1.99450e-01
 1.84108e-01
 1.68765e-01
 1.53423e-01
 1.38081e-01
 1.22738e-01
 1.07396e-01
 9.20538e-02
 7.67115e-02
 6.13692e-02
 4.60269e-02
 3.06846e-02
 1.53423e-02
 1.00000e-60
)


51
(
 7.67118e-01
 7.51776e-01
 7.36832e-01
 7.18808e-01
 7.01869e-01
 6.86946e-01
 6.75061e-01
 6.59718e-01
 6.44376e-01
 6.29034e-01
 6.13691e-01
 5.98349e-01
 5.83007e-01
 5.67664e-01
 5.52322e-01
 5.36980e-01
 5.21638e-01
 5.06295e-01
 4.90953e-01
 4.75611e-01
 4.60268e-01
 4.44926e-01
 4.29584e-01
 4.14242e-01
 3.98899e-01
 3.83557e-01
 3.68215e-01
 3.52872e-01
 3.37530e-01
 3.22188e-01
 3.06846e-01
 2.91503e-01
 2.76161e-01
 2.60819e-01
 2.45477e-01
 2.30134e-01
 2.14792e-01
 1.99450e-01
 1.84107e-01
 1.68765e-01
 1.53423e-01
 1.38081e-01
 1.22738e-01
 1.07396e-01
 9.20537e-02
 7.67114e-02
 6.13691e-02
 4.60268e-02
 3.06846e-02
 1.53423e-02
 1.00000e-60
)


51
(
 7.67118e-01
 7.51776e-01
 7.36850e-01
 7.18980e-01
 7.02146e-01
 6.87247e-01
 6.75060e-01
 6.59717e-01
 6.44375e-01
 6.29033e-01
 6.13690e-01
 5.98348e-01
 5.83006e-01
 5.67664e-01
 5.52321e-01
 5.36979e-01
 5.21637e-01
 5.06295e-01
 4.90952e-01
 4.75610e-01
 4.60268e-01
 4.44926e-01
 4.29583e-01
 4.14241e-01
 3.98899e-01
 3.83557e-01
 3.68214e-01
 3.52872e-01
 3.37530e-01
 3.22187e-01
 3.06845e-01
 2.91503e-01
 2.76161e-01
 2.60818e-01
 2.45476e-01
 2.30134e-01
 2.14792e-01
 1.99449e-01
 1.84107e-01
 1.68765e-01
 1.53423e-01
 1.38080e-01
 1.22738e-01
 1.07396e-01
 9.20536e-02
 7.67113e-02
 6.13690e-02
 4.60268e-02
 3.06845e-02
 1.53423e-02
 1.00000e-60
)


51
(
 7.67118e-01
 7.51776e-01
 7.36867e-01
 7.19157e-01
 7.02432e-01
 6.87557e-01
 6.75059e-01
 6.59716e-01
 6.44374e-01
 6.29032e-01
 6.13689e-01
 5.98347e-01
 5.83005e-01
 5.67663e-01
 5.52320e-01
 5.36978e-01
 5.21636e-01
 5.06294e-01
 4.90951e-01
 4.75609e-01
 4.60267e-01
 4.44925e-01
 4.29583e-01
 4.14240e-01
 3.98898e-01
 3.83556e-01
 3.68214e-01
 3.52871e-01
 3.37529e-01
 3.22187e-01
 3.06845e-01
 2.91502e-01
 2.76160e-01
 2.60818e-01
 2.45476e-01
 2.30133e-01
 2.14791e-01
 1.99449e-01
 1.84107e-01
 1.68765e-01
 1.53422e-01
 1.38080e-01
 1.22738e-01
 1.07396e-01
 9.20534e-02
 7.67112e-02
 6.13689e-02
 4.60267e-02
 3.06845e-02
 1.53422e-02
 1.00000e-60
)


51
(
 7.67118e-01
 7.51776e-01
 7.36885e-01
 7.19337e-01
 7.02723e-01
 6.87873e-01
 6.75057e-01
 6.59715e-01
 6.44372e-01
 6.29030e-01
 6.13688e-01
 5.98346e-01
 5.83004e-01
 5.67661e-01
 5.52319e-01
 5.36977e-01
 5.21635e-01
 5.06293e-01
 4.90950e-01
 4.75608e-01
 4.60266e-01
 4.44924e-01
 4.29582e-01
 4.14239e-01
 3.98897e-01
 3.83555e-01
 3.68213e-01
 3.52871e-01
 3.37528e-01
 3.22186e-01
 3.06844e-01
 2.91502e-01
 2.76160e-01
 2.60817e-01
 2.45475e-01
 2.30133e-01
 2.14791e-01
 1.99449e-01
 1.84106e-01
 1.68764e-01
 1.53422e-01
 1.38080e-01
 1.22738e-01
 1.07395e-01
 9.20532e-02
 7.67110e-02
 6.13688e-02
 4.60266e-02
 3.06844e-02
 1.53422e-02
 1.00000e-60
)


51
(
 7.67118e-01
 7.51776e-01
 7.36904e-01
 7.19517e-01
 7.03014e-01
 6.88190e-01
 6.75055e-01
 6.59713e-01
 6.44371e-01
 6.29028e-01
 6.13686e-01
 5.98344e-01
 5.83002e-01
 5.67660e-01
 5.52318e-01
 5.36975e-01
 5.21633e-01
 5.06291e-01
 4.90949e-01
 4.75607e-01
 4.60265e-01
 4.44923e-01
 4.29580e-01
 4.14238e-01
 3.98896e-01
 3.83554e-01
 3.68212e-01
 3.52870e-01
 3.37527e-01
 3.22185e-01
 3.06843e-01
 2.91501e-01
 2.76159e-01
 2.60817e-01
 2.45475e-01
 2.30132e-01
 2.14790e-01
 1.99448e-01
 1.84106e-01
 1.68764e-01
 1.53422e-01
 1.38079e-01
 1.22737e-01
 1.07395e-01
 9.20529e-02
 7.67108e-02
 6.13686e-02
 4.60265e-02
 3.06843e-02
 1.53422e-02
 1.00000e-60
)


51
(
 7.67118e-01
 7.51776e-01
 7.36922e-01
 7.19696e-01
 7.03303e-01
 6.88503e-01
 6.75053e-01
 6.59710e-01
 6.44368e-01
 6.29026e-01
 6.13684e-01
 5.98342e-01
 5.83000e-01
 5.67658e-01
 5.52316e-01
 5.36974e-01
 5.21631e-01
 5.06289e-01
 4.90947e-01
 4.75605e-01
 4.60263e-01
 4.44921e-01
 4.29579e-01
 4.14237e-01
 3.98895e-01
 3.83553e-01
 3.68210e-01
 3.52868e-01
 3.37526e-01
 3.22184e-01
 3.06842e-01
 2.91500e-01
 2.76158e-01
 2.60816e-01
 2.45474e-01
 2.30132e-01
 2.14789e-01
 1.99447e-01
 1.84105e-01
 1.68763e-01
 1.53421e-01
 1.38079e-01
 1.22737e-01
 1.07395e-01
 9.20526e-02
 7.67105e-02
 6.13684e-02
 4.60263e-02
 3.06842e-02
 1.53421e-02
 1.00000e-60
)


51
(
 7.67118e-01
 7.51776e-01
 7.36939e-01
 7.19870e-01
 7.03584e-01
 6.88809e-01
 6.75050e-01
 6.59708e-01
 6.44366e-01
 6.29023e-01
 6.13681e-01
 5.98339e-01
 5.82997e-01
 5.67655e-01
 5.52313e-01
 5.36971e-01
 5.21629e-01
 5.06287e-01
 4.90945e-01
 4.75603e-01
 4.60261e-01
 4.44919e-01
 4.29577e-01
 4.14235e-01
 3.98893e-01
 3.83551e-01
 3.68209e-01
 3.52867e-01
 3.37525e-01
 3.22183e-01
 3.06841e-01
 2.91499e-01
 2.76157e-01
 2.60815e-01
 2.45473e-01
 2.30131e-01
 2.14789e-01
 1.99446e-01
 1.84104e-01
 1.68762e-01
 1.53420e-01
 1.38078e-01
 1.22736e-01
 1.07394e-01
 9.20522e-02
 7.67102e-02
 6.13681e-02
 4.60261e-02
 3.06841e-02
 1.53420e-02
 1.00000e-60
)


51
(
 7.67118e-01
 7.51775e-01
 7.36956e-01
 7.20037e-01
 7.03854e-01
 6.89102e-01
 6.75047e-01
 6.59704e-01
 6.44362e-01
 6.29020e-01
 6.13678e-01
 5.98336e-01
 5.82994e-01
 5.67652e-01
 5.52310e-01
 5.36968e-01
 5.21626e-01
 5.06284e-01
 4.90942e-01
 4.75601e-01
 4.60259e-01
 4.44917e-01
 4.29575e-01
 4.14233e-01
 3.98891e-01
 3.83549e-01
 3.68207e-01
 3.52865e-01
 3.37523e-01
 3.22181e-01
 3.06839e-01
 2.91497e-01
 2.76155e-01
 2.60813e-01
 2.45471e-01
 2.30129e-01
 2.14787e-01
 1.99445e-01
 1.84103e-01
 1.68761e-01
 1.53420e-01
 1.38078e-01
 1.22736e-01
 1.07394e-01
 9.20517e-02
 7.67098e-02
 6.13678e-02
 4.60259e-02
 3.06839e-02
 1.53420e-02
 1.00000e-60
)


51
(
 7.67118e-01
 7.51775e-01
 7.36972e-01
 7.20195e-01
 7.04109e-01
 6.89378e-01
 6.75042e-01
 6.59700e-01
 6.44358e-01
 6.29016e-01
 6.13674e-01
 5.98332e-01
 5.82990e-01
 5.67648e-01
 5.52307e-01
 5.36965e-01
 5.21623e-01
 5.06281e-01
 4.90939e-01
 4.75597e-01
 4.60255e-01
 4.44914e-01
 4.29572e-01
 4.14230e-01
 3.98888e-01
 3.83546e-01
 3.68204e-01
 3.52863e-01
 3.37521e-01
 3.22179e-01
 3.06837e-01
 2.91495e-01
 2.76153e-01
 2.60811e-01
 2.45470e-01
 2.30128e-01
 2.14786e-01
 1.99444e-01
 1.84102e-01
 1.68760e-01
 1.53418e-01
 1.38077e-01
 1.22735e-01
 1.07393e-01
 9.20511e-02
 7.67092e-02
 6.13674e-02
 4.60255e-02
 3.06837e-02
 1.53418e-02
 1.00000e-60
)


51
(
 7.67118e-01
 7.51775e-01
 7.36986e-01
 7.20340e-01
 7.04345e-01
 6.89634e-01
 6.75037e-01
 6.59694e-01
 6.44352e-01
 6.29010e-01
 6.13669e-01
 5.98327e-01
 5.82985e-01
 5.67643e-01
 5.52302e-01
 5.36960e-01
 5.21618e-01
 5.06277e-01
 4.90935e-01
 4.75593e-01
 4.60251e-01
 4.44910e-01
 4.29568e-01
 4.14226e-01
 3.98885e-01
 3.83543e-01
 3.68201e-01
 3.52859e-01
 3.37518e-01
 3.22176e-01
 3.06834e-01
 2.91493e-01
 2.76151e-01
 2.60809e-01
 2.45467e-01
 2.30126e-01
 2.14784e-01
 1.99442e-01
 1.84101e-01
 1.68759e-01
 1.53417e-01
 1.38075e-01
 1.22734e-01
 1.07392e-01
 9.20503e-02
 7.67086e-02
 6.13669e-02
 4.60251e-02
 3.06834e-02
 1.53417e-02
 1.00000e-60
)


51
(
 7.67118e-01
 7.51774e-01
 7.37000e-01
 7.20471e-01
 7.04557e-01
 6.89864e-01
 6.75030e-01
 6.59687e-01
 6.44345e-01
 6.29003e-01
 6.13662e-01
 5.98320e-01
 5.82979e-01
 5.67637e-01
 5.52296e-01
 5.36954e-01
 5.21612e-01
 5.06271e-01
 4.90929e-01
 4.75588e-01
 4.60246e-01
 4.44905e-01
 4.29563e-01