/*--------------------------------*- C++ -*----------------------------------*\
| =========                 |                                                 |
| \      /  F ield          | OpenFOAM: The Open Source CFD Toolbox           |
|  \    /   O peration      | Version:  7                                     |
|   \  /    A nd            | Web:      http://www.OpenFOAM.com               |
|    \/     M anipulation   |                                                 |
\*---------------------------------------------------------------------------*/
FoamFile 
{   version     2.0;
    format      ascii;
    class       dictionary;
    location    "constant";
    object      LDMtable;
}
// * * * * * * * * * * * * * * * * * * * * * * * * * * * * * * * * * * * * * //

NO2_table
51
(

51
(
 1.00000e-60
 1.00000e-60
 3.64656e-19
 1.99242e-21
 7.67730e-16
 0.00000e+00
 1.00000e-60
 1.00000e-60
 1.00000e-60
 1.00000e-60
 1.00000e-60
 1.00000e-60
 1.00000e-60
 1.00000e-60
 1.00000e-60
 1.00000e-60
 1.00000e-60
 1.00000e-60
 1.00000e-60
 1.00000e-60
 1.00000e-60
 1.00000e-60
 1.00000e-60
 1.00000e-60
 1.00000e-60
 1.00000e-60
 1.00000e-60
 1.00000e-60
 1.00000e-60
 1.00000e-60
 1.00000e-60
 1.00000e-60
 1.00000e-60
 1.00000e-60
 1.00000e-60
 1.00000e-60
 1.00000e-60
 1.00000e-60
 1.00000e-60
 1.00000e-60
 1.00000e-60
 1.00000e-60
 1.00000e-60
 1.00000e-60
 1.00000e-60
 1.00000e-60
 1.00000e-60
 1.00000e-60
 1.00000e-60
 1.00000e-60
 1.00000e-60
)


51
(
 1.00000e-60
 1.17074e-16
 1.17029e-10
 1.48723e-10
 2.98959e-10
 0.00000e+00
 3.53761e-16
 3.47385e-16
 3.39556e-16
 3.30737e-16
 3.20677e-16
 3.09142e-16
 2.97264e-16
 2.86071e-16
 6.65155e-10
 6.62816e-10
 6.58275e-10
 6.51823e-10
 6.43710e-10
 6.34131e-10
 6.23254e-10
 6.11216e-10
 5.98097e-10
 5.83971e-10
 5.68995e-10
 5.53170e-10
 5.36593e-10
 5.19312e-10
 5.01382e-10
 4.82817e-10
 4.63723e-10
 4.44041e-10
 4.23872e-10
 4.03250e-10
 3.82164e-10
 3.60635e-10
 3.38717e-10
 3.16424e-10
 2.93772e-10
 2.70778e-10
 2.47458e-10
 2.23830e-10
 1.99912e-10
 1.75729e-10
 1.51308e-10
 1.26569e-10
 1.01621e-10
 7.65128e-11
 5.11445e-11
 2.56271e-11
 1.00000e-60
)


51
(
 1.00000e-60
 2.34148e-16
 1.19439e-09
 1.51812e-09
 2.97223e-09
 0.00000e+00
 7.07523e-16
 6.94770e-16
 6.79112e-16
 6.61474e-16
 6.41354e-16
 6.18284e-16
 5.94528e-16
 5.72142e-16
 1.33031e-09
 1.32563e-09
 1.31655e-09
 1.30365e-09
 1.28742e-09
 1.26826e-09
 1.24651e-09
 1.22243e-09
 1.19619e-09
 1.16794e-09
 1.13799e-09
 1.10634e-09
 1.07319e-09
 1.03862e-09
 1.00276e-09
 9.65634e-10
 9.27445e-10
 8.88083e-10
 8.47743e-10
 8.06499e-10
 7.64329e-10
 7.21271e-10
 6.77433e-10
 6.32847e-10
 5.87545e-10
 5.41557e-10
 4.94917e-10
 4.47660e-10
 3.99825e-10
 3.51458e-10
 3.02615e-10
 2.53138e-10
 2.03241e-10
 1.53026e-10
 1.02289e-10
 5.12542e-11
 1.00000e-60
)


51
(
 1.00000e-60
 3.51222e-16
 3.31693e-09
 4.21604e-09
 8.22604e-09
 0.00000e+00
 1.06128e-15
 1.04216e-15
 1.01867e-15
 9.92212e-16
 9.62031e-16
 9.27427e-16
 8.91792e-16
 8.58214e-16
 1.99547e-09
 1.98845e-09
 1.97482e-09
 1.95547e-09
 1.93113e-09
 1.90239e-09
 1.86976e-09
 1.83365e-09
 1.79429e-09
 1.75191e-09
 1.70699e-09
 1.65951e-09
 1.60978e-09
 1.55793e-09
 1.50415e-09
 1.44845e-09
 1.39117e-09
 1.33212e-09
 1.27161e-09
 1.20975e-09
 1.14649e-09
 1.08191e-09
 1.01615e-09
 9.49271e-10
 8.81317e-10
 8.12335e-10
 7.42375e-10
 6.71490e-10
 5.99737e-10
 5.27186e-10
 4.53923e-10
 3.79706e-10
 3.04862e-10
 2.29538e-10
 1.53433e-10
 7.68813e-11
 1.00000e-60
)


51
(
 1.00000e-60
 4.68296e-16
 6.38398e-09
 8.11454e-09
 1.58118e-08
 0.00000e+00
 1.41505e-15
 1.38954e-15
 1.35822e-15
 1.32295e-15
 1.28271e-15
 1.23657e-15
 1.18906e-15
 1.14428e-15
 2.66062e-09
 2.65126e-09
 2.63310e-09
 2.60729e-09
 2.57484e-09
 2.53653e-09
 2.49301e-09
 2.44486e-09
 2.39239e-09
 2.33588e-09
 2.27598e-09
 2.21268e-09
 2.14637e-09
 2.07725e-09
 2.00553e-09
 1.93127e-09
 1.85489e-09
 1.77617e-09
 1.69549e-09
 1.61300e-09
 1.52866e-09
 1.44254e-09
 1.35487e-09
 1.26569e-09
 1.17509e-09
 1.08311e-09
 9.89834e-10
 8.95319e-10
 7.99649e-10
 7.02915e-10
 6.05231e-10
 5.06275e-10
 4.06483e-10
 3.06051e-10
 2.04578e-10
 1.02508e-10
 1.00000e-60
)


51
(
 1.00000e-60
 1.42350e-15
 1.02949e-08
 1.30857e-08
 2.54810e-08
 0.00000e+00
 1.76881e-15
 1.73693e-15
 1.69778e-15
 1.65369e-15
 1.60338e-15
 1.54571e-15
 1.48632e-15
 1.43036e-15
 3.32578e-09
 3.31408e-09
 3.29137e-09
 3.25912e-09
 3.21855e-09
 3.17066e-09
 3.11627e-09
 3.05608e-09
 2.99048e-09
 2.91986e-09
 2.84498e-09
 2.76585e-09
 2.68297e-09
 2.59656e-09
 2.50691e-09
 2.41408e-09
 2.31861e-09
 2.22021e-09
 2.11936e-09
 2.01625e-09
 1.91082e-09
 1.80318e-09
 1.69358e-09
 1.58212e-09
 1.46886e-09
 1.35389e-09
 1.23729e-09
 1.11915e-09
 9.99561e-10
 8.78644e-10
 7.56538e-10
 6.32844e-10
 5.08103e-10
 3.82564e-10
 2.55722e-10
 1.28135e-10
 1.00000e-60
)


51
(
 1.00000e-60
 6.87250e-15
 1.49490e-08
 1.90015e-08
 3.69850e-08
 0.00000e+00
 2.12257e-15
 2.08431e-15
 2.03734e-15
 1.98442e-15
 1.92406e-15
 1.85485e-15
 1.78358e-15
 1.71643e-15
 3.99093e-09
 3.97689e-09
 3.94965e-09
 3.91094e-09
 3.86226e-09
 3.80479e-09
 3.73952e-09
 3.66729e-09
 3.58858e-09
 3.50383e-09
 3.41397e-09
 3.31902e-09
 3.21956e-09
 3.11587e-09
 3.00829e-09
 2.89690e-09
 2.78234e-09
 2.66425e-09
 2.54323e-09
 2.41950e-09
 2.29299e-09
 2.16381e-09
 2.03230e-09
 1.89854e-09
 1.76263e-09
 1.62467e-09
 1.48475e-09
 1.34298e-09
 1.19947e-09
 1.05437e-09
 9.07846e-10
 7.59413e-10
 6.09724e-10
 4.59077e-10
 3.06867e-10
 1.53763e-10
 1.00000e-60
)


51
(
 1.00000e-60
 2.14061e-14
 2.02457e-08
 2.57341e-08
 5.00752e-08
 0.00000e+00
 2.47633e-15
 2.43170e-15
 2.37689e-15
 2.31516e-15
 2.24474e-15
 2.16400e-15
 2.08085e-15
 2.00250e-15
 4.65609e-09
 4.63971e-09
 4.60792e-09
 4.56276e-09
 4.50597e-09
 4.43892e-09
 4.36278e-09
 4.27851e-09
 4.18668e-09
 4.08780e-09
 3.98297e-09
 3.87219e-09
 3.75615e-09
 3.63518e-09
 3.50967e-09
 3.37972e-09
 3.24606e-09
 3.10829e-09
 2.96710e-09
 2.82275e-09
 2.67515e-09
 2.52445e-09
 2.37102e-09
 2.21497e-09
 2.05641e-09
 1.89545e-09
 1.73221e-09
 1.56681e-09
 1.39939e-09
 1.23010e-09
 1.05915e-09
 8.85982e-10
 7.11345e-10
 5.35590e-10
 3.58011e-10
 1.79390e-10
 1.00000e-60
)


51
(
 1.00000e-60
 6.05877e-14
 2.60842e-08
 3.31554e-08
 6.45031e-08
 0.00000e+00
 2.83009e-15
 2.77908e-15
 2.71645e-15
 2.64590e-15
 2.56541e-15
 2.47314e-15
 2.37811e-15
 2.28857e-15
 5.32124e-09
 5.30253e-09
 5.26620e-09
 5.21459e-09
 5.14968e-09
 5.07305e-09
 4.98603e-09
 4.88973e-09
 4.78477e-09
 4.67177e-09
 4.55196e-09
 4.42536e-09
 4.29275e-09
 4.15449e-09
 4.01105e-09
 3.86254e-09
 3.70978e-09
 3.55233e-09
 3.39097e-09
 3.22600e-09
 3.05732e-09
 2.88508e-09
 2.70973e-09
 2.53139e-09
 2.35018e-09
 2.16623e-09
 1.97967e-09
 1.79064e-09
 1.59930e-09
 1.40583e-09
 1.21046e-09
 1.01255e-09
 8.12965e-10
 6.12102e-10
 4.09156e-10
 2.05017e-10
 1.00000e-60
)


51
(
 1.00000e-60
 1.48114e-13
 3.23640e-08
 4.11377e-08
 8.00201e-08
 0.00000e+00
 3.77507e-15
 3.12647e-15
 3.05600e-15
 2.97663e-15
 2.88609e-15
 2.78228e-15
 2.67538e-15
 2.57464e-15
 5.98640e-09
 5.96534e-09
 5.92447e-09
 5.86641e-09
 5.79339e-09
 5.70718e-09
 5.60928e-09
 5.50094e-09
 5.38287e-09
 5.25574e-09
 5.12096e-09
 4.97853e-09
 4.82934e-09
 4.67380e-09
 4.51244e-09
 4.34535e-09
 4.17350e-09
 3.99637e-09
 3.81484e-09
 3.62925e-09
 3.43948e-09
 3.24572e-09
 3.04845e-09
 2.84781e-09
 2.64395e-09
 2.43701e-09
 2.22713e-09
 2.01447e-09
 1.79921e-09
 1.58156e-09
 1.36177e-09
 1.13912e-09
 9.14586e-10
 6.88615e-10
 4.60300e-10
 2.30644e-10
 1.00000e-60
)


51
(
 1.00000e-60
 2.90797e-13
 3.89844e-08
 4.95529e-08
 9.63777e-08
 0.00000e+00
 9.03889e-15
 3.47385e-15
 3.39556e-15
 3.30737e-15
 3.20677e-15
 3.09142e-15
 2.97264e-15
 2.86071e-15
 6.65155e-09
 6.62816e-09
 6.58275e-09
 6.51823e-09
 6.43710e-09
 6.34131e-09
 6.23254e-09
 6.11216e-09
 5.98097e-09
 5.83971e-09
 5.68995e-09
 5.53170e-09
 5.36593e-09
 5.19312e-09
 5.01382e-09
 4.82817e-09
 4.63723e-09
 4.44041e-09
 4.23872e-09
 4.03250e-09
 3.82164e-09
 3.60635e-09
 3.38717e-09
 3.16424e-09
 2.93772e-09
 2.70778e-09
 2.47458e-09
 2.23830e-09
 1.99912e-09
 1.75729e-09
 1.51308e-09
 1.26569e-09
 1.01621e-09
 7.65128e-10
 5.11445e-10
 2.56271e-10
 1.00000e-60
)


51
(
 1.00000e-60
 5.79023e-13
 4.58448e-08
 5.82730e-08
 1.13327e-07
 0.00000e+00
 2.00193e-14
 5.67828e-15
 3.73511e-15
 3.63811e-15
 3.52745e-15
 3.40056e-15
 3.26991e-15
 3.14678e-15
 7.31671e-09
 7.29097e-09
 7.24102e-09
 7.17006e-09
 7.08081e-09
 6.97544e-09
 6.85579e-09
 6.72337e-09
 6.57906e-09
 6.42368e-09
 6.25895e-09
 6.08487e-09
 5.90253e-09
 5.71243e-09
 5.51520e-09
 5.31099e-09
 5.10095e-09
 4.88446e-09
 4.66259e-09
 4.43575e-09
 4.20381e-09
 3.96699e-09
 3.72588e-09
 3.48066e-09
 3.23150e-09
 2.97856e-09
 2.72204e-09
 2.46213e-09
 2.19904e-09
 1.93302e-09
 1.66438e-09
 1.39226e-09
 1.11783e-09
 8.41641e-10
 5.62589e-10
 2.81898e-10
 1.00000e-60
)


51
(
 1.00000e-60
 1.12939e-12
 5.28444e-08
 6.71702e-08
 1.30620e-07
 0.00000e+00
 4.37420e-14
 1.13629e-14
 4.07467e-15
 3.96885e-15
 3.84812e-15
 3.70971e-15
 3.56717e-15
 3.43285e-15
 7.98186e-09
 7.95379e-09
 7.89929e-09
 7.82188e-09
 7.72452e-09
 7.60958e-09
 7.47904e-09
 7.33459e-09
 7.17716e-09
 7.00765e-09
 6.82794e-09
 6.63803e-09
 6.43912e-09
 6.23174e-09
 6.01658e-09
 5.79380e-09
 5.56467e-09
 5.32850e-09
 5.08646e-09
 4.83900e-09
 4.58597e-09
 4.32763e-09
 4.06460e-09
 3.79708e-09
 3.52527e-09
 3.24934e-09
 2.96950e-09
 2.68596e-09
 2.39895e-09
 2.10875e-09
 1.81569e-09
 1.51883e-09
 1.21945e-09
 9.18154e-10
 6.13734e-10
 3.07525e-10
 1.00000e-60
)


51
(
 1.00000e-60
 1.81629e-12
 5.98826e-08
 7.61165e-08
 1.48008e-07
 0.00000e+00
 7.36407e-14
 2.25202e-14
 7.08634e-15
 4.29958e-15
 4.16880e-15
 4.01885e-15
 3.86443e-15
 3.71893e-15
 8.64702e-09
 8.61660e-09
 8.55757e-09
 8.47370e-09
 8.36823e-09
 8.24371e-09
 8.10230e-09
 7.94580e-09
 7.77526e-09
 7.59163e-09
 7.39694e-09
 7.19120e-09
 6.97571e-09
 6.75105e-09
 6.51796e-09
 6.27662e-09
 6.02839e-09
 5.77254e-09
 5.51033e-09
 5.24225e-09
 4.96814e-09
 4.68826e-09
 4.40331e-09
 4.11351e-09
 3.81904e-09
 3.52012e-09
 3.21696e-09
 2.90979e-09
 2.59886e-09
 2.28447e-09
 1.96700e-09
 1.64539e-09
 1.32107e-09
 9.94666e-10
 6.64878e-10
 3.33152e-10
 1.00000e-60
)


51
(
 1.00000e-60
 3.36542e-12
 6.68588e-08
 8.49840e-08
 1.65242e-07
 0.00000e+00
 1.34633e-13
 4.33361e-14
 1.28396e-14
 4.63032e-15
 4.48948e-15
 4.32799e-15
 4.16170e-15
 4.00500e-15
 9.31217e-09
 9.27942e-09
 9.21584e-09
 9.12553e-09
 9.01194e-09
 8.87784e-09
 8.72555e-09
 8.55702e-09
 8.37335e-09
 8.17560e-09
 7.96593e-09
 7.74437e-09
 7.51230e-09
 7.27036e-09
 7.01934e-09
 6.75944e-09
 6.49212e-09
 6.21658e-09
 5.93420e-09
 5.64550e-09
 5.35030e-09
 5.04890e-09
 4.74203e-09
 4.42993e-09
 4.11281e-09
 3.79090e-09
 3.46442e-09
 3.13362e-09
 2.79877e-09
 2.46020e-09
 2.11831e-09
 1.77196e-09
 1.42269e-09
 1.07118e-09
 7.16022e-10
 3.58779e-10
 1.00000e-60
)


51
(
 1.00000e-60
 5.13908e-12
 7.36724e-08
 9.36447e-08
 1.82074e-07
 0.00000e+00
 2.12294e-13
 7.23132e-14
 2.34268e-14
 8.05603e-15
 4.81015e-15
 4.63713e-15
 4.45896e-15
 4.29107e-15
 9.97733e-09
 9.94223e-09
 9.87412e-09
 9.77735e-09
 9.65564e-09
 9.51197e-09
 9.34880e-09
 9.16824e-09
 8.97145e-09
 8.75957e-09
 8.53493e-09
 8.29754e-09
 8.04890e-09
 7.78967e-09
 7.52073e-09
 7.24225e-09
 6.95584e-09
 6.66062e-09
 6.35807e-09
 6.04874e-09
 5.73247e-09
 5.40953e-09
 5.08075e-09
 4.74635e-09
 4.40658e-09
 4.06168e-09
 3.71188e-09
 3.35745e-09
 2.99868e-09
 2.63593e-09
 2.26962e-09
 1.89853e-09
 1.52431e-09
 1.14769e-09
 7.67167e-10
 3.84406e-10
 1.00000e-60
)


51
(
 1.00000e-60
 7.60486e-12
 8.02225e-08
 1.01971e-07
 1.98255e-07
 0.00000e+00
 3.69821e-13
 1.11396e-13
 3.91105e-14
 1.35836e-14
 5.13083e-15
 4.94628e-15
 4.75623e-15
 4.57714e-15
 1.06425e-08
 1.06051e-08
 1.05324e-08
 1.04292e-08
 1.02994e-08
 1.01461e-08
 9.97206e-09
 9.77945e-09
 9.56955e-09
 9.34354e-09
 9.10392e-09
 8.85071e-09
 8.58549e-09
 8.30899e-09
 8.02211e-09
 7.72507e-09
 7.41956e-09
 7.10466e-09
 6.78195e-09
 6.45199e-09
 6.11463e-09
 5.77017e-09
 5.41946e-09
 5.06278e-09
 4.70036e-09
 4.33245e-09
 3.95933e-09
 3.58128e-09
 3.19860e-09
 2.81166e-09
 2.42092e-09
 2.02510e-09
 1.62593e-09
 1.22420e-09
 8.18311e-10
 4.10033e-10
 1.00000e-60
)


51
(
 1.00000e-60
 1.15349e-11
 8.64087e-08
 1.09834e-07
 2.13536e-07
 0.00000e+00
 5.27348e-13
 1.78486e-13
 6.64964e-14
 2.30278e-14
 8.65421e-15
 5.25542e-15
 5.05349e-15
 4.86321e-15
 1.13076e-08
 1.12679e-08
 1.11907e-08
 1.10810e-08
 1.09431e-08
 1.07802e-08
 1.05953e-08
 1.03907e-08
 1.01676e-08
 9.92751e-09
 9.67292e-09
 9.40388e-09
 9.12208e-09
 8.82830e-09
 8.52349e-09
 8.20789e-09
 7.88329e-09
 7.54870e-09
 7.20582e-09
 6.85524e-09
 6.49680e-09
 6.13080e-09
 5.75818e-09
 5.37920e-09
 4.99413e-09
 4.60323e-09
 4.20679e-09
 3.80511e-09
 3.39851e-09
 2.98739e-09
 2.57223e-09
 2.15167e-09
 1.72755e-09
 1.30072e-09
 8.69456e-10
 4.35661e-10
 1.00000e-60
)


51
(
 1.00000e-60
 1.77496e-11
 9.21303e-08
 1.17107e-07
 2.27669e-07
 0.00000e+00
 8.40628e-13
 2.65845e-13
 9.38824e-14
 3.41663e-14
 1.37749e-14
 5.56456e-15
 5.35075e-15
 5.14928e-15
 1.19728e-08
 1.19307e-08
 1.18489e-08
 1.17328e-08
 1.15868e-08
 1.14144e-08
 1.12186e-08
 1.10019e-08
 1.07657e-08
 1.05115e-08
 1.02419e-08
 9.95705e-09
 9.65868e-09
 9.34761e-09
 9.02487e-09
 8.69071e-09
 8.34701e-09
 7.99275e-09
 7.62969e-09
 7.25849e-09
 6.87896e-09
 6.49144e-09
 6.09690e-09
 5.69563e-09
 5.28790e-09
 4.87401e-09
 4.45425e-09
 4.02894e-09
 3.59842e-09
 3.16312e-09
 2.72354e-09
 2.27824e-09
 1.82917e-09
 1.37723e-09
 9.20600e-10
 4.61288e-10
 1.00000e-60
)


51
(
 1.00000e-60
 2.54222e-11
 9.72865e-08
 1.23661e-07
 2.40406e-07
 0.00000e+00
 1.17740e-12
 4.03989e-13
 1.43111e-13
 5.84419e-14
 2.19222e-14
 9.14745e-15
 5.64802e-15
 5.43535e-15
 1.26380e-08
 1.25935e-08
 1.25072e-08
 1.23846e-08
 1.22305e-08
 1.20485e-08
 1.18418e-08
 1.16131e-08
 1.13638e-08
 1.10955e-08
 1.08109e-08
 1.05102e-08
 1.01953e-08
 9.86692e-09
 9.52625e-09
 9.17352e-09
 8.81073e-09
 8.43679e-09
 8.05356e-09
 7.66174e-09
 7.26112e-09
 6.85207e-09
 6.43561e-09
 6.01205e-09
 5.58167e-09
 5.14479e-09
 4.70171e-09
 4.25277e-09
 3.79833e-09
 3.33885e-09
 2.87485e-09
 2.40481e-09
 1.93079e-09
 1.45374e-09
 9.71745e-10
 4.86915e-10
 1.00000e-60
)


51
(
 1.00000e-60
 3.92242e-11
 1.01777e-07
 1.29368e-07
 2.51498e-07
 0.00000e+00
 1.51417e-12
 5.42133e-13
 2.04266e-13
 8.42077e-14
 3.26552e-14
 1.40502e-14
 6.36890e-15
 5.72142e-15
 1.33031e-08
 1.32563e-08
 1.31655e-08
 1.30365e-08
 1.28742e-08
 1.26826e-08
 1.24651e-08
 1.22243e-08
 1.19619e-08
 1.16794e-08
 1.13799e-08
 1.10634e-08
 1.07319e-08
 1.03862e-08
 1.00276e-08
 9.65634e-09
 9.27445e-09
 8.88083e-09
 8.47743e-09
 8.06499e-09
 7.64329e-09
 7.21271e-09
 6.77433e-09
 6.32847e-09
 5.87545e-09
 5.41557e-09
 4.94917e-09
 4.47660e-09
 3.99825e-09
 3.51458e-09
 3.02615e-09
 2.53138e-09
 2.03241e-09
 1.53026e-09
 1.02289e-09
 5.12542e-10
 1.00000e-60
)


51
(
 1.00000e-60
 5.55144e-11
 1.05501e-07
 1.34101e-07
 2.60696e-07
 0.00000e+00
 2.09335e-12
 4.56901e-09
 3.32832e-09
 2.34623e-10
 4.25584e-09
 2.88699e-09
 1.01693e-14
 6.00750e-15
 1.39683e-08
 1.39191e-08
 1.38238e-08
 1.36883e-08
 1.35179e-08
 1.33168e-08
 1.30883e-08
 1.28355e-08
 1.25600e-08
 1.22634e-08
 1.19489e-08
 1.16166e-08
 1.12685e-08
 1.09055e-08
 1.05290e-08
 1.01392e-08
 9.73818e-09
 9.32487e-09
 8.90130e-09
 8.46824e-09
 8.02545e-09
 7.57334e-09
 7.11305e-09
 6.64490e-09
 6.16922e-09
 5.68635e-09
 5.19663e-09
 4.70043e-09
 4.19816e-09
 3.69030e-09
 3.17746e-09
 2.65794e-09
 2.13403e-09
 1.60677e-09
 1.07403e-09
 5.38169e-10
 1.00000e-60
)


51
(
 1.00000e-60
 7.81236e-11
 1.08357e-07
 1.37732e-07
 2.67751e-07
 0.00000e+00
 2.68882e-12
 1.06491e-08
 1.11564e-08
 1.10034e-08
 1.21915e-08
 1.21123e-08
 1.04351e-08
 1.03753e-08
 1.46334e-08
 1.45819e-08
 1.44820e-08
 1.43401e-08
 1.41616e-08
 1.39509e-08
 1.37116e-08
 1.34467e-08
 1.31581e-08
 1.28474e-08
 1.25179e-08
 1.21697e-08
 1.18051e-08
 1.14249e-08
 1.10304e-08
 1.06220e-08
 1.02019e-08
 9.76891e-09
 9.32518e-09
 8.87149e-09
 8.40762e-09
 7.93398e-09
 7.45176e-09
 6.96132e-09
 6.46299e-09
 5.95713e-09
 5.44409e-09
 4.92426e-09
 4.39807e-09
 3.86603e-09
 3.32877e-09
 2.78451e-09
 2.23565e-09
 1.68328e-09
 1.12518e-09
 5.63796e-10
 1.00000e-60
)


51
(
 1.00000e-60
 1.10225e-10
 1.10245e-07
 1.40133e-07
 2.72416e-07
 0.00000e+00
 2.02153e-09
 7.43780e-10
 5.90087e-10
 7.64636e-10
 1.24817e-08
 1.27702e-08
 1.29225e-08
 1.29888e-08
 1.29910e-08
 6.80711e-09
 8.24458e-10
 9.87204e-10
 1.25637e-08
 1.23762e-08
 1.21639e-08
 1.19292e-08
 1.16738e-08
 1.13990e-08
 1.11077e-08
 1.08000e-08
 1.04775e-08
 1.01414e-08
 9.79264e-09
 9.43143e-09
 9.05979e-09
 8.67635e-09
 8.28356e-09
 7.88167e-09
 7.47054e-09
 7.05093e-09
 6.62324e-09
 6.18831e-09
 5.74609e-09
 5.29713e-09
 4.84162e-09
 4.37992e-09
 3.91245e-09
 3.43972e-09
 2.96216e-09
 2.47821e-09
 1.98995e-09
 1.49848e-09
 1.00177e-09
 5.02009e-10
 1.00000e-60
)


51
(
 1.00000e-60
 1.63715e-10
 1.11065e-07
 1.41175e-07
 2.74441e-07
 0.00000e+00
 2.39002e-10
 3.47588e-10
 3.80990e-10
 4.07888e-10
 4.27641e-10
 4.40805e-10
 2.32904e-10
 7.08357e-11
 4.54021e-10
 1.70117e-10
 3.01738e-10
 3.29793e-10
 3.35022e-10
 3.32504e-10
 3.26850e-10
 3.19716e-10
 3.11719e-10
 3.03127e-10
 2.94108e-10
 2.84704e-10
 2.74985e-10
 2.64987e-10
 2.54749e-10
 2.44286e-10
 2.33647e-10
 2.22821e-10
 2.11848e-10
 2.00745e-10
 1.89516e-10
 1.78169e-10
 1.66727e-10
 1.55195e-10
 1.43584e-10
 1.31895e-10
 1.20140e-10
 1.08322e-10
 9.64490e-11
 8.45270e-11
 7.25626e-11
 6.05432e-11
 4.84910e-11
 3.64132e-11
 2.42952e-11
 1.21556e-11
 1.00000e-60
)


51
(
 1.00000e-60
 2.30412e-10
 1.10783e-07
 1.40788e-07
 2.73644e-07
 0.00000e+00
 1.31283e-08
 8.98611e-09
 9.99304e-09
 1.13533e-08
 1.24236e-08
 1.25181e-08
 1.36178e-08
 1.39117e-08
 1.40730e-08
 5.56606e-12
 1.41218e-08
 1.40479e-08
 1.39245e-08
 1.37595e-08
 1.35584e-08
 1.33268e-08
 1.30668e-08
 1.27805e-08
 1.24729e-08
 1.21435e-08
 1.17953e-08
 1.14295e-08
 1.10477e-08
 1.06496e-08
 1.02386e-08
 9.81379e-09
 9.37606e-09
 8.92730e-09
 8.46724e-09
 7.99570e-09
 7.51502e-09
 7.02500e-09
 6.52640e-09
 6.01915e-09
 5.50392e-09
 4.98121e-09
 4.45136e-09
 3.91480e-09
 3.37250e-09
 2.82236e-09
 2.26712e-09
 1.70784e-09
 1.14200e-09
 5.72388e-10
 1.00000e-60
)


51
(
 1.00000e-60
 2.97110e-10
 1.09540e-07
 1.39095e-07
 2.70176e-07
 0.00000e+00
 3.40128e-08
 1.33205e-11
 3.90701e-08
 4.34857e-08
 4.59884e-08
 4.76432e-08
 4.21879e-08
 4.94171e-08
 8.56123e-12
 3.84020e-08
 4.58312e-08
 4.74735e-08
 4.76749e-08
 4.73235e-08
 4.67054e-08
 4.59310e-08
 4.50424e-08
 4.40602e-08
 4.30024e-08
 4.18702e-08
 4.06739e-08
 3.94163e-08
 3.81031e-08
 3.67352e-08
 3.53215e-08
 3.38578e-08
 3.23516e-08
 3.08062e-08
 2.92215e-08
 2.75978e-08
 2.59411e-08
 2.42521e-08
 2.25325e-08
 2.07831e-08
 1.90058e-08
 1.72021e-08
 1.53737e-08
 1.35221e-08
 1.16498e-08
 9.75017e-09
 7.83243e-09
 5.90065e-09
 3.94590e-09
 1.97785e-09
 1.00000e-60
)


51
(
 1.00000e-60
 4.56954e-10
 1.07427e-07
 1.36216e-07
 2.64278e-07
 0.00000e+00
 4.89704e-08
 3.55891e-08
 2.34408e-08
 8.79211e-12
 1.83099e-11
 1.22530e-08
 1.91028e-11
 7.98432e-09
 2.07872e-11
 6.65306e-09
 6.37035e-09
 6.18285e-09
 6.04132e-09
 5.91815e-09
 5.80109e-09
 5.68227e-09
 5.55918e-09
 5.42987e-09
 5.29384e-09
 5.15108e-09
 5.00103e-09
 4.84452e-09
 4.68210e-09
 4.51251e-09
 4.33856e-09
 4.15717e-09
 3.97216e-09
 3.78234e-09
 3.58736e-09
 3.38826e-09
 3.18475e-09
 2.97759e-09
 2.76622e-09
 2.55152e-09
 2.33352e-09
 2.11234e-09
 1.88789e-09
 1.66064e-09
 1.43088e-09
 1.19762e-09
 9.61951e-10
 7.24674e-10
 4.84641e-10
 2.42938e-10
 1.00000e-60
)


51
(
 1.00000e-60
 6.35879e-10
 1.04527e-07
 1.32266e-07
 2.56185e-07
 0.00000e+00
 5.38451e-08
 6.26550e-08
 6.92480e-08
 7.41920e-08
 1.94183e-08
 9.54664e-09
 2.20681e-12
 2.97253e-12
 3.70467e-12
 3.89103e-12
 3.94844e-12
 3.93249e-12
 3.87482e-12
 3.79259e-12
 3.69532e-12
 3.58880e-12
 3.47611e-12
 3.35939e-12
 3.24026e-12
 3.11929e-12
 2.99714e-12
 2.87418e-12
 2.75059e-12
 2.62661e-12
 2.50235e-12
 2.37781e-12
 2.25311e-12
 2.12831e-12
 2.00335e-12
 1.87835e-12
 1.75328e-12
 1.62815e-12
 1.50301e-12
 1.37783e-12
 1.25263e-12
 1.12742e-12
 1.00219e-12
 8.76927e-13
 7.51670e-13
 6.26397e-13
 5.01133e-13
 3.75861e-13
 2.50578e-13
 1.25290e-13
 1.00000e-60
)


51
(
 1.00000e-60
 8.14804e-10
 1.00927e-07
 1.27361e-07
 2.46137e-07
 0.00000e+00
 5.81307e-08
 6.84221e-08
 7.62427e-08
 8.21911e-08
 6.28028e-08
 6.10513e-08
 5.81957e-08
 5.64303e-08
 5.44763e-08
 5.29319e-08
 5.21004e-08
 5.15591e-08
 5.10696e-08
 5.05232e-08
 4.98787e-08
 4.91255e-08
 4.82628e-08
 4.72948e-08
 4.62365e-08
 4.50884e-08
 4.38609e-08
 4.25587e-08
 4.11885e-08
 3.97517e-08
 3.82596e-08
 3.67058e-08
 3.51016e-08
 3.34505e-08
 3.17514e-08
 3.00068e-08
 2.82221e-08
 2.63992e-08
 2.45397e-08
 2.26457e-08
 2.07185e-08
 1.87601e-08
 1.67726e-08
 1.47582e-08
 1.27199e-08
 1.06494e-08
 8.55730e-09
 6.44892e-09
 4.31363e-09
 2.16260e-09
 1.00000e-60
)


51
(
 1.00000e-60
 9.93728e-10
 9.67113e-08
 1.21619e-07
 2.34372e-07
 0.00000e+00
 6.22923e-08
 7.39273e-08
 8.29841e-08
 8.99907e-08
 9.54113e-08
 9.94975e-08
 1.02556e-07
 1.04746e-07
 1.06201e-07
 1.07029e-07
 1.07323e-07
 1.07154e-07
 1.06584e-07
 1.05662e-07
 1.04431e-07
 1.02925e-07
 1.01167e-07
 9.91752e-08
 9.69871e-08
 9.46046e-08
 9.20513e-08
 8.93382e-08
 8.64790e-08
 8.34773e-08
 8.03572e-08
 7.71061e-08
 7.37465e-08
 7.02868e-08
 6.67250e-08
 6.30657e-08
 5.93211e-08
 5.54951e-08
 5.15912e-08
 4.76133e-08
 4.35650e-08
 3.94503e-08
 3.52735e-08
 3.10394e-08
 2.67543e-08
 2.24005e-08
 1.80011e-08
 1.35668e-08
 9.07516e-09
 4.54993e-09
 1.00000e-60
)


51
(
 1.00000e-60
 1.35877e-09
 9.19654e-08
 1.15153e-07
 2.21126e-07
 0.00000e+00
 6.53754e-08
 7.86251e-08
 8.91052e-08
 9.73330e-08
 1.03789e-07
 1.08735e-07
 1.12505e-07
 1.15275e-07
 1.17192e-07
 1.18377e-07
 1.18936e-07
 1.18952e-07
 1.18494e-07
 1.17622e-07
 1.16385e-07
 1.14825e-07
 1.12966e-07
 1.10832e-07
 1.08466e-07
 1.05872e-07
 1.03076e-07
 1.00093e-07
 9.69390e-08
 9.36176e-08
 9.01575e-08
 8.65442e-08
 8.28040e-08
 7.89468e-08
 7.49703e-08
 7.08801e-08
 6.66904e-08
 6.24058e-08
 5.80304e-08
 5.35687e-08
 4.90251e-08
 4.44042e-08
 3.97109e-08
 3.49510e-08
 3.01317e-08
 2.52324e-08
 2.02801e-08
 1.52871e-08
 1.02272e-08
 5.12800e-09
 1.00000e-60
)


51
(
 1.00000e-60
 1.77281e-09
 8.67745e-08
 1.08082e-07
 2.06639e-07
 0.00000e+00
 6.84584e-08
 8.33229e-08
 9.51895e-08
 1.04635e-07
 1.12134e-07
 1.17950e-07
 1.22443e-07
 1.25802e-07
 1.28189e-07
 1.29740e-07
 1.30572e-07
 1.30779e-07
 1.30440e-07
 1.29623e-07
 1.28385e-07
 1.26773e-07
 1.24817e-07
 1.22542e-07
 1.20001e-07
 1.17196e-07
 1.14160e-07
 1.10908e-07
 1.07458e-07
 1.03817e-07
 1.00016e-07
 9.60399e-08
 9.19179e-08
 8.76618e-08
 8.32690e-08
 7.87459e-08
 7.41089e-08
 6.93632e-08
 6.45137e-08
 5.95655e-08
 5.45236e-08
 4.93932e-08
 4.41802e-08
 3.88910e-08
 3.35338e-08
 2.80852e-08
 2.25760e-08
 1.70203e-08
 1.13878e-08
 5.71045e-09
 1.00000e-60
)


51
(
 1.00000e-60
 2.18686e-09
 8.12240e-08
 1.00521e-07
 1.91148e-07
 0.00000e+00
 7.06607e-08
 8.70165e-08
 1.00418e-07
 1.11242e-07
 1.19952e-07
 1.26807e-07
 1.32186e-07
 1.36291e-07
 1.39294e-07
 1.41343e-07
 1.42569e-07
 1.43073e-07
 1.42948e-07
 1.42268e-07
 1.41100e-07
 1.39496e-07
 1.37492e-07
 1.35118e-07
 1.32433e-07
 1.29441e-07
 1.26180e-07
 1.22668e-07
 1.18926e-07
 1.14962e-07
 1.10812e-07
 1.06459e-07
 1.01937e-07
 9.72587e-08
 9.24224e-08
 8.74352e-08
 8.23158e-08
 7.70706e-08
 7.17052e-08
 6.62254e-08
 6.06372e-08
 5.49466e-08
 4.91602e-08
 4.32856e-08
 3.73323e-08
 3.12731e-08
 2.51437e-08
 1.89602e-08
 1.26878e-08
 6.36315e-09
 1.00000e-60
)


51
(
 1.00000e-60
 2.92230e-09
 7.53989e-08
 9.25856e-08
 1.74891e-07
 0.00000e+00
 7.24342e-08
 9.03065e-08
 1.05238e-07
 1.17484e-07
 1.27468e-07
 1.35432e-07
 1.41771e-07
 1.46694e-07
 1.50382e-07
 1.52995e-07
 1.54674e-07
 1.55532e-07
 1.55669e-07
 1.55170e-07
 1.54110e-07
 1.52549e-07
 1.50525e-07
 1.48075e-07
 1.45266e-07
 1.42102e-07
 1.38628e-07
 1.34864e-07
 1.30835e-07
 1.26548e-07
 1.22049e-07
 1.17314e-07
 1.12384e-07
 1.07276e-07
 1.01985e-07
 9.65194e-08
 9.09023e-08
 8.51400e-08
 7.92394e-08
 7.32071e-08
 6.70499e-08
 6.07748e-08
 5.43895e-08
 4.79026e-08
 4.13250e-08
 3.46255e-08
 2.78448e-08
 2.10020e-08
 1.40564e-08
 7.05047e-09
 1.00000e-60
)


51
(
 1.00000e-60
 3.68194e-09
 6.93847e-08
 8.43927e-08
 1.58106e-07
 0.00000e+00
 7.35671e-08
 9.29086e-08
 1.09395e-07
 1.23130e-07
 1.34479e-07
 1.43657e-07
 1.51066e-07
 1.56915e-07
 1.61394e-07
 1.64672e-07
 1.66899e-07
 1.68196e-07
 1.68675e-07
 1.68428e-07
 1.67539e-07
 1.66075e-07
 1.64080e-07
 1.61593e-07
 1.58694e-07
 1.55386e-07
 1.51719e-07
 1.47717e-07
 1.43410e-07
 1.38807e-07
 1.33957e-07
 1.28836e-07
 1.23491e-07
 1.17939e-07
 1.12176e-07
 1.06213e-07
 1.00075e-07
 9.37696e-08
 8.73046e-08
 8.06878e-08
 7.39271e-08
 6.70304e-08
 6.00065e-08
 5.28657e-08
 4.56202e-08
 3.82340e-08
 3.07542e-08
 2.32026e-08
 1.55322e-08
 7.79186e-09
 1.00000e-60
)


51
(
 1.00000e-60
 4.44157e-09
 6.32665e-08
 7.60582e-08
 1.41031e-07
 0.00000e+00
 7.40921e-08
 9.49702e-08
 1.13061e-07
 1.28338e-07
 1.41114e-07
 1.51575e-07
 1.60126e-07
 1.66976e-07
 1.72321e-07
 1.76334e-07
 1.79176e-07
 1.80975e-07
 1.81853e-07
 1.81911e-07
 1.81238e-07
 1.79913e-07
 1.77982e-07
 1.75490e-07
 1.72526e-07
 1.69093e-07
 1.65250e-07
 1.61024e-07
 1.56448e-07
 1.51531e-07
 1.46333e-07
 1.40824e-07
 1.35057e-07
 1.29054e-07
 1.22810e-07
 1.16335e-07
 1.09660e-07
 1.02794e-07
 9.57442e-08
 8.85208e-08
 8.11324e-08
 7.35882e-08
 6.58982e-08
 5.80740e-08
 5.01299e-08
 4.20244e-08
 3.38114e-08
 2.55159e-08
 1.70841e-08
 8.57168e-09
 1.00000e-60
)


51
(
 1.00000e-60
 5.70715e-09
 5.71296e-08
 6.76981e-08
 1.23904e-07
 0.00000e+00
 7.40450e-08
 9.62189e-08
 1.15848e-07
 1.32699e-07
 1.46982e-07
 1.58833e-07
 1.68647e-07
 1.76626e-07
 1.82965e-07
 1.87841e-07
 1.91421e-07
 1.93839e-07
 1.95224e-07
 1.95685e-07
 1.95321e-07
 1.94216e-07
 1.92421e-07
 1.89985e-07
 1.87010e-07
 1.83498e-07
 1.79515e-07
 1.75093e-07
 1.70269e-07
 1.65054e-07
 1.59515e-07
 1.53618e-07
 1.47426e-07
 1.40961e-07
 1.34219e-07
 1.27213e-07
 1.19975e-07
 1.12518e-07
 1.04850e-07
 9.69817e-08
 8.89237e-08
 8.06865e-08
 7.22816e-08
 6.37223e-08
 5.50249e-08
 4.61416e-08
 3.71346e-08
 2.80326e-08
 1.87732e-08
 9.42085e-09
 1.00000e-60
)


51
(
 1.00000e-60
 6.99944e-09
 5.10592e-08
 5.94286e-08
 1.06962e-07
 0.00000e+00
 7.27253e-08
 9.56283e-08
 1.16462e-07
 1.34691e-07
 1.50363e-07
 1.63606e-07
 1.74684e-07
 1.83806e-07
 1.91175e-07
 1.96975e-07
 2.01372e-07
 2.04508e-07
 2.06508e-07
 2.07486e-07
 2.07534e-07
 2.06731e-07
 2.05165e-07
 2.02893e-07
 1.99993e-07
 1.96498e-07
 1.92465e-07
 1.87931e-07
 1.82935e-07
 1.77504e-07
 1.71685e-07
 1.65486e-07
 1.58937e-07
 1.52068e-07
 1.44893e-07
 1.37421e-07
 1.29680e-07
 1.21693e-07
 1.13464e-07
 1.04999e-07
 9.63235e-08
 8.74452e-08
 7.83618e-08
 6.90989e-08
 5.96757e-08
 5.00885e-08
 4.03151e-08
 3.04275e-08
 2.03996e-08
 1.02294e-08
 1.00000e-60
)


51
(
 1.00000e-60
 8.29174e-09
 4.51405e-08
 5.13659e-08
 9.04438e-08
 0.00000e+00
 7.06036e-08
 9.45536e-08
 1.16727e-07
 1.36412e-07
 1.53541e-07
 1.68232e-07
 1.80646e-07
 1.90991e-07
 1.99473e-07
 2.06278e-07
 2.11570e-07
 2.15494e-07
 2.18177e-07
 2.19733e-07
 2.20250e-07
 2.19805e-07
 2.18513e-07
 2.16442e-07
 2.13652e-07
 2.10200e-07
 2.06137e-07
 2.01506e-07
 1.96349e-07
 1.90704e-07
 1.84608e-07
 1.78097e-07
 1.71182e-07
 1.63894e-07
 1.56268e-07
 1.48306e-07
 1.40034e-07
 1.31487e-07
 1.22664e-07
 1.13567e-07
 1.04235e-07
 9.46732e-08
 8.48687e-08
 7.48579e-08
 6.46628e-08
 5.43151e-08
 4.37241e-08
 3.29992e-08
 2.21423e-08
 1.10981e-08
 1.00000e-60
)


51
(
 1.00000e-60
 1.04114e-08
 3.94589e-08
 4.36261e-08
 7.45870e-08
 0.00000e+00
 6.86632e-08
 9.33495e-08
 1.16775e-07
 1.37956e-07
 1.56653e-07
 1.72894e-07
 1.86792e-07
 1.98527e-07
 2.08290e-07
 2.16260e-07
 2.22599e-07
 2.27449e-07
 2.30941e-07
 2.33189e-07
 2.34285e-07
 2.34307e-07
 2.33379e-07
 2.31576e-07
 2.28960e-07
 2.25594e-07
 2.21534e-07
 2.16829e-07
 2.11524e-07
 2.05662e-07
 1.99284e-07
 1.92433e-07
 1.85119e-07
 1.77379e-07
 1.69251e-07
 1.60739e-07
 1.51873e-07
 1.42691e-07
 1.33192e-07
 1.23381e-07
 1.13299e-07
 1.02956e-07
 9.23341e-08
 8.14764e-08
 7.04078e-08
 5.91646e-08
 4.76430e-08
 3.59682e-08
 2.41424e-08
 1.21020e-08
 1.00000e-60
)


51
(
 1.00000e-60
 1.31216e-08
 3.40995e-08
 3.63253e-08
 5.96296e-08
 0.00000e+00
 6.60080e-08
 9.11964e-08
 1.15750e-07
 1.38370e-07
 1.58629e-07
 1.76453e-07
 1.91894e-07
 2.05099e-07
 2.16239e-07
 2.25480e-07
 2.32977e-07
 2.38869e-07
 2.43284e-07
 2.46337e-07
 2.48120e-07
 2.48712e-07
 2.48245e-07
 2.46797e-07
 2.44437e-07
 2.41230e-07
 2.37237e-07
 2.32513e-07
 2.27107e-07
 2.21068e-07
 2.14440e-07
 2.07273e-07
 1.99578e-07
 1.91395e-07
 1.82770e-07
 1.73707e-07
 1.64238e-07
 1.54408e-07
 1.44217e-07
 1.33669e-07
 1.22812e-07
 1.11656e-07
 1.00182e-07
 8.84389e-08
 7.64555e-08
 6.42730e-08
 5.17732e-08
 3.90989e-08
 2.62524e-08
 1.31614e-08
 1.00000e-60
)


51
(
 1.00000e-60
 1.75018e-08
 2.91477e-08
 2.95796e-08
 4.58096e-08
 0.00000e+00
 6.25327e-08
 8.79345e-08
 1.13392e-07
 1.37334e-07
 1.59113e-07
 1.78529e-07
 1.95562e-07
 2.10314e-07
 2.22929e-07
 2.33555e-07
 2.42335e-07
 2.49400e-07
 2.54872e-07
 2.58865e-07
 2.61467e-07
 2.62756e-07
 2.62871e-07
 2.61891e-07
 2.59890e-07
 2.56937e-07
 2.53097e-07
 2.48429e-07
 2.42988e-07
 2.36827e-07
 2.29997e-07
 2.22552e-07
 2.14504e-07
 2.05900e-07
 1.96792e-07
 1.87182e-07
 1.77109e-07
 1.66625e-07
 1.55728e-07
 1.44423e-07
 1.32767e-07
 1.20769e-07
 1.08410e-07
 9.57446e-08
 8.28058e-08
 6.96405e-08
 5.61150e-08
 4.23914e-08
 2.84724e-08
 1.42761e-08
 1.00000e-60
)


51
(
 1.00000e-60
 6.09785e-08
 2.46886e-08
 2.35051e-08
 3.33647e-08
 0.00000e+00
 5.81351e-08
 8.32443e-08
 1.09312e-07
 1.34393e-07
 1.57595e-07
 1.78570e-07
 1.97213e-07
 2.13570e-07
 2.27748e-07
 2.39871e-07
 2.50065e-07
 2.58446e-07
 2.65128e-07
 2.70217e-07
 2.73795e-07
 2.75937e-07
 2.76783e-07