/*--------------------------------*- C++ -*----------------------------------*\
| =========                 |                                                 |
| \      /  F ield          | OpenFOAM: The Open Source CFD Toolbox           |
|  \    /   O peration      | Version:  7                                     |
|   \  /    A nd            | Web:      http://www.OpenFOAM.com               |
|    \/     M anipulation   |                                                 |
\*---------------------------------------------------------------------------*/
FoamFile 
{   version     2.0;
    format      ascii;
    class       dictionary;
    location    "constant";
    object      LDMtable;
}
// * * * * * * * * * * * * * * * * * * * * * * * * * * * * * * * * * * * * * //

NO_table
51
(

51
(
 1.00000e-60
 1.47355e-48
 1.61550e-19
 4.33421e-21
 1.65695e-16
 1.10744e-15
 2.00906e-36
 2.54285e-36
 2.84914e-36
 3.17605e-36
 3.55444e-36
 3.89594e-36
 4.17243e-36
 4.37263e-36
 4.62543e-36
 4.84001e-36
 4.95358e-36
 5.03416e-36
 5.08151e-36
 5.12738e-36
 5.05567e-36
 4.96809e-36
 4.86987e-36
 4.74742e-36
 4.56272e-36
 4.33411e-36
 4.04789e-36
 3.70949e-36
 3.38394e-36
 3.09578e-36
 2.80328e-36
 2.53885e-36
 2.31160e-36
 2.12483e-36
 1.94926e-36
 1.78038e-36
 1.61854e-36
 1.44555e-36
 1.25308e-36
 1.08620e-36
 9.47308e-37
 8.30129e-37
 7.24326e-37
 6.12414e-37
 5.02765e-37
 4.15674e-37
 3.37214e-37
 2.70712e-37
 1.93539e-37
 1.00015e-37
 1.00000e-60
)


51
(
 1.00000e-60
 5.39192e-23
 4.33422e-10
 3.78490e-09
 5.82502e-10
 7.08683e-12
 2.08550e-20
 8.06571e-20
 2.93595e-19
 9.40262e-19
 2.50218e-18
 5.54069e-18
 9.15657e-18
 1.12217e-17
 6.99016e-10
 6.69069e-10
 6.40559e-10
 6.13295e-10
 5.87116e-10
 5.61892e-10
 5.37518e-10
 5.13900e-10
 4.90987e-10
 4.68732e-10
 4.47031e-10
 4.25885e-10
 4.05229e-10
 3.85032e-10
 3.65259e-10
 3.45900e-10
 3.26886e-10
 3.08256e-10
 2.89944e-10
 2.71927e-10
 2.54212e-10
 2.36787e-10
 2.19616e-10
 2.02689e-10
 1.85996e-10
 1.69526e-10
 1.53269e-10
 1.37213e-10
 1.21346e-10
 1.05652e-10
 9.01136e-11
 7.47822e-11
 5.95872e-11
 4.44965e-11
 2.95757e-11
 1.47521e-11
 1.00000e-60
)


51
(
 1.00000e-60
 1.07838e-22
 4.50882e-09
 3.94230e-08
 6.05513e-09
 6.44518e-11
 4.17099e-20
 1.61314e-19
 5.87190e-19
 1.88052e-18
 5.00435e-18
 1.10814e-17
 1.83131e-17
 2.24434e-17
 1.39803e-09
 1.33814e-09
 1.28112e-09
 1.22659e-09
 1.17423e-09
 1.12378e-09
 1.07504e-09
 1.02780e-09
 9.81975e-10
 9.37464e-10
 8.94062e-10
 8.51770e-10
 8.10457e-10
 7.70065e-10
 7.30518e-10
 6.91800e-10
 6.53772e-10
 6.16511e-10
 5.79887e-10
 5.43853e-10
 5.08424e-10
 4.73573e-10
 4.39231e-10
 4.05377e-10
 3.71991e-10
 3.39052e-10
 3.06538e-10
 2.74426e-10
 2.42692e-10
 2.11305e-10
 1.80227e-10
 1.49564e-10
 1.19174e-10
 8.89929e-11
 5.91513e-11
 2.95041e-11
 1.00000e-60
)


51
(
 1.00000e-60
 1.61758e-22
 1.27709e-08
 1.11804e-07
 1.71656e-08
 1.79292e-10
 6.25649e-20
 2.41971e-19
 8.80785e-19
 2.82079e-18
 7.50653e-18
 1.66221e-17
 2.74697e-17
 3.36651e-17
 2.09705e-09
 2.00721e-09
 1.92168e-09
 1.83988e-09
 1.76135e-09
 1.68568e-09
 1.61255e-09
 1.54170e-09
 1.47296e-09
 1.40620e-09
 1.34109e-09
 1.27766e-09
 1.21569e-09
 1.15510e-09
 1.09578e-09
 1.03770e-09
 9.80659e-10
 9.24767e-10
 8.69831e-10
 8.15780e-10
 7.62636e-10
 7.10360e-10
 6.58847e-10
 6.08066e-10
 5.57987e-10
 5.08578e-10
 4.59807e-10
 4.11640e-10
 3.64038e-10
 3.16957e-10
 2.70341e-10
 2.24347e-10
 1.78762e-10
 1.33489e-10
 8.87270e-11
 4.42562e-11
 1.00000e-60
)


51
(
 1.00000e-60
 2.15677e-22
 2.50895e-08
 2.19931e-07
 3.37583e-08
 3.49930e-10
 8.34198e-20
 3.22628e-19
 1.17438e-18
 3.76105e-18
 1.00087e-17
 2.21627e-17
 3.66263e-17
 4.48868e-17
 2.79606e-09
 2.67628e-09
 2.56223e-09
 2.45318e-09
 2.34846e-09
 2.24757e-09
 2.15007e-09
 2.05560e-09
 1.96395e-09
 1.87493e-09
 1.78812e-09
 1.70354e-09
 1.62091e-09
 1.54013e-09
 1.46104e-09
 1.38360e-09
 1.30754e-09
 1.23302e-09
 1.15977e-09
 1.08771e-09
 1.01685e-09
 9.47147e-10
 8.78463e-10
 8.10755e-10
 7.43982e-10
 6.78103e-10
 6.13075e-10
 5.48853e-10
 4.85384e-10
 4.22610e-10
 3.60455e-10
 2.99129e-10
 2.38349e-10
 1.77986e-10
 1.18303e-10
 5.90082e-11
 1.00000e-60
)


51
(
 1.00000e-60
 1.78252e-21
 4.13347e-08
 3.62810e-07
 5.56776e-08
 5.74686e-10
 1.04275e-19
 4.03286e-19
 1.46797e-18
 4.70131e-18
 1.25109e-17
 2.77034e-17
 4.57829e-17
 5.61085e-17
 3.49508e-09
 3.34535e-09
 3.20279e-09
 3.06647e-09
 2.93558e-09
 2.80946e-09
 2.68759e-09
 2.56950e-09
 2.45494e-09
 2.34366e-09
 2.23516e-09
 2.12943e-09
 2.02614e-09
 1.92516e-09
 1.82630e-09
 1.72950e-09
 1.63443e-09
 1.54128e-09
 1.44972e-09
 1.35963e-09
 1.27106e-09
 1.18393e-09
 1.09808e-09
 1.01344e-09
 9.29978e-10
 8.47629e-10
 7.66344e-10
 6.86066e-10
 6.06730e-10
 5.28262e-10
 4.50568e-10
 3.73911e-10
 2.97936e-10
 2.22482e-10
 1.47878e-10
 7.37603e-11
 1.00000e-60
)


51
(
 1.00000e-60
 3.99678e-20
 6.13764e-08
 5.39444e-07
 8.27681e-08
 8.51881e-10
 1.25130e-19
 4.83943e-19
 1.76157e-18
 5.64157e-18
 1.50131e-17
 3.32441e-17
 5.49394e-17
 6.73302e-17
 4.19409e-09
 4.01442e-09
 3.84335e-09
 3.67977e-09
 3.52269e-09
 3.37135e-09
 3.22511e-09
 3.08340e-09
 2.94592e-09
 2.81239e-09
 2.68219e-09
 2.55531e-09
 2.43137e-09
 2.31019e-09
 2.19155e-09
 2.07540e-09
 1.96132e-09
 1.84953e-09
 1.73966e-09
 1.63156e-09
 1.52527e-09
 1.42072e-09
 1.31769e-09
 1.21613e-09
 1.11597e-09
 1.01716e-09
 9.19613e-10
 8.23279e-10
 7.28076e-10
 6.33914e-10
 5.40682e-10
 4.48693e-10
 3.57523e-10
 2.66979e-10
 1.77454e-10
 8.85123e-11
 1.00000e-60
)


51
(
 1.00000e-60
 2.68656e-19
 8.50845e-08
 7.48838e-07
 1.14874e-07
 1.17984e-09
 1.45985e-19
 5.64600e-19
 2.05516e-18
 6.58183e-18
 1.75152e-17
 3.87848e-17
 6.40960e-17
 7.85519e-17
 4.89311e-09
 4.68348e-09
 4.48391e-09
 4.29306e-09
 4.10981e-09
 3.93325e-09
 3.76262e-09
 3.59730e-09
 3.43691e-09
 3.28112e-09
 3.12922e-09
 2.98120e-09
 2.83660e-09
 2.69523e-09
 2.55681e-09
 2.42130e-09
 2.28820e-09
 2.15779e-09
 2.02961e-09
 1.90349e-09
 1.77948e-09
 1.65751e-09
 1.53731e-09
 1.41882e-09
 1.30197e-09
 1.18668e-09
 1.07288e-09
 9.60492e-10
 8.49422e-10
 7.39567e-10
 6.30795e-10
 5.23475e-10
 4.17111e-10
 3.11475e-10
 2.07030e-10
 1.03264e-10
 1.00000e-60
)


51
(
 1.00000e-60
 1.68376e-18
 1.12329e-07
 9.89996e-07
 1.51840e-07
 1.55687e-09
 1.66840e-19
 6.45257e-19
 2.34876e-18
 7.52209e-18
 2.00174e-17
 4.43255e-17
 7.32526e-17
 8.97736e-17
 5.59213e-09
 5.35255e-09
 5.12447e-09
 4.90636e-09
 4.69693e-09
 4.49514e-09
 4.30014e-09
 4.11120e-09
 3.92790e-09
 3.74986e-09
 3.57625e-09
 3.40708e-09
 3.24183e-09
 3.08026e-09
 2.92207e-09
 2.76720e-09
 2.61509e-09
 2.46605e-09
 2.31955e-09
 2.17541e-09
 2.03370e-09
 1.89429e-09
 1.75693e-09
 1.62151e-09
 1.48796e-09
 1.35621e-09
 1.22615e-09
 1.09771e-09
 9.70768e-10
 8.45219e-10
 7.20909e-10
 5.98258e-10
 4.76698e-10
 3.55972e-10
 2.36605e-10
 1.18016e-10
 1.00000e-60
)


51
(
 1.00000e-60
 8.69834e-18
 1.42980e-07
 1.26192e-06
 1.93511e-07
 1.98131e-09
 3.06094e-19
 7.25914e-19
 2.64235e-18
 8.46236e-18
 2.25196e-17
 4.98662e-17
 8.24092e-17
 1.00995e-16
 6.29114e-09
 6.02162e-09
 5.76503e-09
 5.51965e-09
 5.28404e-09
 5.05703e-09
 4.83766e-09
 4.62510e-09
 4.41889e-09
 4.21859e-09
 4.02328e-09
 3.83297e-09
 3.64706e-09
 3.46529e-09
 3.28733e-09
 3.11310e-09
 2.94198e-09
 2.77430e-09
 2.60949e-09
 2.44734e-09
 2.28791e-09
 2.13108e-09
 1.97654e-09
 1.82420e-09
 1.67396e-09
 1.52573e-09
 1.37942e-09
 1.23492e-09
 1.09211e-09
 9.50871e-10
 8.11023e-10
 6.73040e-10
 5.36285e-10
 4.00468e-10
 2.66181e-10
 1.32768e-10
 1.00000e-60
)


51
(
 1.00000e-60
 2.36608e-17
 1.76907e-07
 1.56362e-06
 2.39730e-07
 2.45148e-09
 1.77652e-18
 8.06571e-19
 2.93595e-18
 9.40262e-18
 2.50218e-17
 5.54069e-17
 9.15657e-17
 1.12217e-16
 6.99016e-09
 6.69069e-09
 6.40559e-09
 6.13295e-09
 5.87116e-09
 5.61892e-09
 5.37518e-09
 5.13900e-09
 4.90987e-09
 4.68732e-09
 4.47031e-09
 4.25885e-09
 4.05229e-09
 3.85032e-09
 3.65259e-09
 3.45900e-09
 3.26886e-09
 3.08256e-09
 2.89944e-09
 2.71927e-09
 2.54212e-09
 2.36787e-09
 2.19616e-09
 2.02689e-09
 1.85996e-09
 1.69526e-09
 1.53269e-09
 1.37213e-09
 1.21346e-09
 1.05652e-09
 9.01136e-10
 7.47822e-10
 5.95872e-10
 4.44965e-10
 2.95757e-10
 1.47521e-10
 1.00000e-60
)


51
(
 1.00000e-60
 8.53685e-17
 2.13981e-07
 1.89410e-06
 2.90342e-07
 2.96569e-09
 1.01913e-17
 2.33491e-18
 3.22954e-18
 1.03429e-17
 2.75239e-17
 6.09476e-17
 1.00722e-16
 1.23439e-16
 7.68917e-09
 7.35976e-09
 7.04615e-09
 6.74624e-09
 6.45827e-09
 6.18082e-09
 5.91269e-09
 5.65290e-09
 5.40086e-09
 5.15605e-09
 4.91734e-09
 4.68474e-09
 4.45751e-09
 4.23536e-09
 4.01785e-09
 3.80490e-09
 3.59575e-09
 3.39081e-09
 3.18938e-09
 2.99119e-09
 2.79633e-09
 2.60465e-09
 2.41577e-09
 2.22958e-09
 2.04595e-09
 1.86478e-09
 1.68596e-09
 1.50935e-09
 1.33481e-09
 1.16218e-09
 9.91250e-10
 8.22604e-10
 6.55460e-10
 4.89461e-10
 3.25332e-10
 1.62273e-10
 1.00000e-60
)


51
(
 1.00000e-60
 3.44823e-16
 2.54070e-07
 2.25236e-06
 3.45193e-07
 3.52227e-09
 7.63796e-17
 9.23804e-18
 3.52314e-18
 1.12831e-17
 3.00261e-17
 6.64882e-17
 1.09879e-16
 1.34660e-16
 8.38819e-09
 8.02883e-09
 7.68670e-09
 7.35953e-09
 7.04539e-09
 6.74271e-09
 6.45021e-09
 6.16680e-09
 5.89185e-09
 5.62478e-09
 5.36437e-09
 5.11062e-09
 4.86274e-09
 4.62039e-09
 4.38311e-09
 4.15080e-09
 3.92263e-09
 3.69907e-09
 3.47932e-09
 3.26312e-09
 3.05054e-09
 2.84144e-09
 2.63539e-09
 2.43226e-09
 2.23195e-09
 2.03431e-09
 1.83923e-09
 1.64656e-09
 1.45615e-09
 1.26783e-09
 1.08136e-09
 8.97386e-10
 7.15047e-10
 5.33958e-10
 3.54908e-10
 1.77025e-10
 1.00000e-60
)


51
(
 1.00000e-60
 7.14003e-16
 2.97046e-07
 2.63740e-06
 4.04125e-07
 4.11953e-09
 1.72757e-16
 4.38090e-17
 1.13348e-17
 1.22234e-17
 3.25283e-17
 7.20289e-17
 1.19035e-16
 1.45882e-16
 9.08721e-09
 8.69790e-09
 8.32726e-09
 7.97283e-09
 7.63251e-09
 7.30460e-09
 6.98773e-09
 6.68070e-09
 6.38284e-09
 6.09352e-09
 5.81140e-09
 5.53651e-09
 5.26797e-09
 5.00542e-09
 4.74837e-09
 4.49670e-09
 4.24952e-09
 4.00732e-09
 3.76927e-09
 3.53505e-09
 3.30475e-09
 3.07823e-09
 2.85500e-09
 2.63495e-09
 2.41794e-09
 2.20384e-09
 1.99250e-09
 1.78377e-09
 1.57750e-09
 1.37348e-09
 1.17148e-09
 9.72169e-10
 7.74634e-10
 5.78454e-10
 3.84484e-10
 1.91777e-10
 1.00000e-60
)


51
(
 1.00000e-60
 3.10915e-15
 3.42778e-07
 3.04823e-06
 4.66984e-07
 4.75581e-09
 8.10613e-16
 2.55370e-16
 3.71680e-17
 1.31637e-17
 3.50305e-17
 7.75696e-17
 1.28192e-16
 1.57104e-16
 9.78622e-09
 9.36697e-09
 8.96782e-09
 8.58612e-09
 8.21962e-09
 7.86649e-09
 7.52525e-09
 7.19460e-09
 6.87382e-09
 6.56225e-09
 6.25844e-09
 5.96239e-09
 5.67320e-09
 5.39045e-09
 5.11363e-09
 4.84260e-09
 4.57641e-09
 4.31558e-09
 4.05921e-09
 3.80697e-09
 3.55897e-09
 3.31501e-09
 3.07462e-09
 2.83764e-09
 2.60394e-09
 2.37336e-09
 2.14576e-09
 1.92098e-09
 1.69884e-09
 1.47913e-09
 1.26159e-09
 1.04695e-09
 8.34221e-10
 6.22951e-10
 4.14059e-10
 2.06529e-10
 1.00000e-60
)


51
(
 1.00000e-60
 6.03188e-15
 3.91136e-07
 3.48386e-06
 5.33614e-07
 5.42941e-09
 2.08874e-15
 6.26727e-16
 1.49493e-16
 4.14753e-17
 3.75326e-17
 8.31103e-17
 1.37349e-16
 1.68325e-16
 1.04852e-08
 1.00360e-08
 9.60838e-09
 9.19942e-09
 8.80674e-09
 8.42839e-09
 8.06276e-09
 7.70850e-09
 7.36481e-09
 7.03098e-09
 6.70547e-09
 6.38828e-09
 6.07843e-09
 5.77549e-09
 5.47889e-09
 5.18850e-09
 4.90329e-09
 4.62383e-09
 4.34916e-09
 4.07890e-09
 3.81318e-09
 3.55180e-09
 3.29423e-09
 3.04033e-09
 2.78993e-09
 2.54289e-09
 2.29903e-09
 2.05820e-09
 1.82019e-09
 1.58479e-09
 1.35170e-09
 1.12173e-09
 8.93809e-10
 6.67447e-10
 4.43635e-10
 2.21281e-10
 1.00000e-60
)


51
(
 1.00000e-60
 1.29358e-14
 4.41991e-07
 3.94329e-06
 6.03859e-07
 6.13867e-09
 9.19221e-15
 1.70338e-15
 5.43457e-16
 1.17049e-16
 4.00348e-17
 8.86510e-17
 1.46505e-16
 1.79547e-16
 1.11843e-08
 1.07051e-08
 1.02489e-08
 9.81271e-09
 9.39385e-09
 8.99028e-09
 8.60028e-09
 8.22240e-09
 7.85580e-09
 7.49971e-09
 7.15250e-09
 6.81416e-09
 6.48366e-09
 6.16052e-09
 5.84415e-09
 5.53440e-09
 5.23018e-09
 4.93209e-09
 4.63910e-09
 4.35083e-09
 4.06739e-09
 3.78859e-09
 3.51385e-09
 3.24302e-09
 2.97593e-09
 2.71241e-09
 2.45230e-09
 2.19541e-09
 1.94154e-09
 1.69044e-09
 1.44182e-09
 1.19652e-09
 9.53396e-10
 7.11944e-10
 4.73211e-10
 2.36033e-10
 1.00000e-60
)


51
(
 1.00000e-60
 2.82625e-14
 4.95211e-07
 4.42552e-06
 6.77565e-07
 6.88190e-09
 1.62957e-14
 4.73486e-15
 1.69320e-15
 3.88764e-16
 1.15474e-16
 9.41917e-17
 1.55662e-16
 1.90769e-16
 1.18833e-08
 1.13742e-08
 1.08895e-08
 1.04260e-08
 9.98097e-09
 9.55217e-09
 9.13780e-09
 8.73630e-09
 8.34679e-09
 7.96844e-09
 7.59953e-09
 7.24005e-09
 6.88889e-09
 6.54555e-09
 6.20941e-09
 5.88030e-09
 5.55707e-09
 5.24035e-09
 4.92904e-09
 4.62275e-09
 4.32160e-09
 4.02537e-09
 3.73347e-09
 3.44571e-09
 3.16192e-09
 2.88194e-09
 2.60557e-09
 2.33262e-09
 2.06288e-09
 1.79609e-09
 1.53193e-09
 1.27130e-09
 1.01298e-09
 7.56440e-10
 5.02786e-10
 2.50785e-10
 1.00000e-60
)


51
(
 1.00000e-60
 7.26517e-14
 5.50667e-07
 4.92956e-06
 7.54574e-07
 7.65742e-09
 7.79129e-14
 1.29322e-14
 2.84295e-15
 7.56028e-16
 2.80852e-16
 9.97324e-17
 1.64818e-16
 2.01991e-16
 1.25823e-08
 1.20432e-08
 1.15301e-08
 1.10393e-08
 1.05681e-08
 1.01141e-08
 9.67532e-09
 9.25020e-09
 8.83777e-09
 8.43717e-09
 8.04656e-09
 7.66593e-09
 7.29411e-09
 6.93058e-09
 6.57466e-09
 6.22620e-09
 5.88395e-09
 5.54860e-09
 5.21899e-09
 4.89468e-09
 4.57581e-09
 4.26216e-09
 3.95308e-09
 3.64840e-09
 3.34792e-09
 3.05147e-09
 2.75884e-09
 2.46984e-09
 2.18423e-09
 1.90174e-09
 1.62205e-09
 1.34608e-09
 1.07257e-09
 8.00937e-10
 5.32362e-10
 2.65537e-10
 1.00000e-60
)


51
(
 1.00000e-60
 1.35587e-13
 6.08229e-07
 5.45440e-06
 8.34733e-07
 8.46356e-09
 1.47752e-13
 3.40739e-14
 8.17750e-15
 3.04894e-15
 7.39521e-16
 2.55403e-16
 1.73975e-16
 2.13212e-16
 1.32813e-08
 1.27123e-08
 1.21706e-08
 1.16526e-08
 1.11552e-08
 1.06760e-08
 1.02128e-08
 9.76410e-09
 9.32876e-09
 8.90591e-09
 8.49359e-09
 8.09182e-09
 7.69934e-09
 7.31562e-09
 6.93992e-09
 6.57210e-09
 6.21084e-09
 5.85686e-09
 5.50893e-09
 5.16661e-09
 4.83003e-09
 4.49895e-09
 4.17270e-09
 3.85109e-09
 3.53391e-09
 3.22099e-09
 2.91211e-09
 2.60705e-09
 2.30557e-09
 2.00740e-09
 1.71216e-09
 1.42086e-09
 1.13216e-09
 8.45433e-10
 5.61938e-10
 2.80289e-10
 1.00000e-60
)


51
(
 1.00000e-60
 3.65104e-13
 6.67766e-07
 5.99907e-06
 9.17884e-07
 9.29863e-09
 2.17591e-13
 5.52157e-14
 1.57969e-14
 5.56027e-15
 1.49294e-15
 5.39713e-16
 2.10972e-16
 2.24434e-16
 1.39803e-08
 1.33814e-08
 1.28112e-08
 1.22659e-08
 1.17423e-08
 1.12378e-08
 1.07504e-08
 1.02780e-08
 9.81975e-09
 9.37464e-09
 8.94062e-09
 8.51770e-09
 8.10457e-09
 7.70065e-09
 7.30518e-09
 6.91800e-09
 6.53772e-09
 6.16511e-09
 5.79887e-09
 5.43853e-09
 5.08424e-09
 4.73573e-09
 4.39231e-09
 4.05377e-09
 3.71991e-09
 3.39052e-09
 3.06538e-09
 2.74426e-09
 2.42692e-09
 2.11305e-09
 1.80227e-09
 1.49564e-09
 1.19174e-09
 8.89929e-10
 5.91513e-10
 2.95041e-10
 1.00000e-60
)


51
(
 1.00000e-60
 6.62242e-13
 7.29150e-07
 6.56255e-06
 1.00387e-06
 1.01610e-08
 5.23270e-13
 7.96124e-09
 5.15575e-09
 3.30809e-10
 5.55508e-09
 3.53010e-09
 4.50368e-16
 2.35656e-16
 1.46793e-08
 1.40505e-08
 1.34517e-08
 1.28792e-08
 1.23294e-08
 1.17997e-08
 1.12879e-08
 1.07919e-08
 1.03107e-08
 9.84337e-09
 9.38765e-09
 8.94359e-09
 8.50980e-09
 8.08568e-09
 7.67044e-09
 7.26390e-09
 6.86461e-09
 6.47337e-09
 6.08882e-09
 5.71046e-09
 5.33845e-09
 4.97252e-09
 4.61193e-09
 4.25646e-09
 3.90591e-09
 3.56004e-09
 3.21865e-09
 2.88148e-09
 2.54827e-09
 2.21870e-09
 1.89239e-09
 1.57043e-09
 1.25133e-09
 9.34426e-10
 6.21089e-10
 3.09793e-10
 1.00000e-60
)


51
(
 1.00000e-60
 1.29213e-12
 7.92249e-07
 7.14386e-06
 1.09254e-06
 1.10489e-08
 8.44799e-13
 1.85566e-08
 1.72827e-08
 1.55210e-08
 1.59134e-08
 1.48105e-08
 1.20555e-08
 1.14013e-08
 1.53783e-08
 1.47195e-08
 1.40923e-08
 1.34925e-08
 1.29165e-08
 1.23616e-08
 1.18254e-08
 1.13058e-08
 1.08017e-08
 1.03121e-08
 9.83468e-09
 9.36947e-09
 8.91503e-09
 8.47071e-09
 8.03570e-09
 7.60980e-09
 7.19150e-09
 6.78162e-09
 6.37876e-09
 5.98239e-09
 5.59266e-09
 5.20931e-09
 4.83154e-09
 4.45915e-09
 4.09190e-09
 3.72957e-09
 3.37191e-09
 3.01869e-09
 2.66961e-09
 2.32435e-09
 1.98250e-09
 1.64521e-09
 1.31092e-09
 9.78922e-10
 6.50665e-10
 3.24545e-10
 1.00000e-60
)


51
(
 1.00000e-60
 2.42185e-12
 8.56934e-07
 7.74200e-06
 1.18374e-06
 1.19607e-08
 4.80529e-09
 5.87807e-10
 3.78018e-10
 4.12877e-10
 3.01205e-08
 2.91175e-08
 2.80533e-08
 2.70131e-08
 2.60119e-08
 1.41321e-08
 2.16531e-10
 2.41966e-10
 2.23567e-08
 2.15087e-08
 2.06803e-08
 1.98689e-08
 1.90734e-08
 1.82925e-08
 1.75236e-08
 1.67667e-08
 1.60202e-08
 1.52838e-08
 1.45562e-08
 1.38375e-08
 1.31260e-08
 1.24221e-08
 1.17254e-08
 1.10345e-08
 1.03499e-08
 9.67166e-09
 8.99821e-09
 8.33011e-09
 7.66659e-09
 7.00781e-09
 6.35334e-09
 5.70298e-09
 5.05653e-09
 4.41373e-09
 3.77404e-09
 3.13863e-09
 2.50592e-09
 1.87539e-09
 1.24843e-09
 6.23476e-10
 1.00000e-60
)


51
(
 1.00000e-60
 5.94079e-12
 9.23075e-07
 8.35597e-06
 1.27731e-06
 1.28947e-08
 2.20528e-10
 2.27002e-10
 1.87944e-10
 1.59184e-10
 1.36352e-10
 1.17888e-10
 5.57411e-11
 1.10849e-11
 7.89719e-11
 2.79398e-11
 4.45619e-11
 4.41173e-11
 4.08507e-11
 3.71563e-11
 3.36302e-11
 3.04127e-11
 2.75233e-11
 2.49406e-11
 2.26079e-11
 2.05137e-11
 1.86189e-11
 1.69018e-11
 1.53396e-11
 1.39212e-11
 1.26167e-11
 1.14324e-11
 1.03428e-11
 9.33716e-12
 8.41348e-12
 7.56445e-12
 6.77810e-12
 6.04929e-12
 5.37335e-12
 4.74567e-12
 4.16211e-12
 3.61852e-12
 3.11089e-12
 2.63510e-12
 2.18686e-12
 1.77373e-12
 1.38257e-12
 1.00792e-12
 6.59145e-13
 3.24405e-13
 1.00000e-60
)


51
(
 1.00000e-60
 1.09351e-11
 9.93613e-07
 8.98370e-06
 1.37133e-06
 1.40493e-08
 8.52856e-08
 5.03813e-08
 5.03840e-08
 5.27289e-08
 5.39766e-08
 5.18852e-08
 5.34047e-08
 5.23675e-08
 5.11015e-08
 5.20550e-13
 4.82542e-08
 4.67652e-08
 4.52615e-08
 4.37532e-08
 4.22443e-08
 4.07416e-08
 3.92448e-08
 3.77548e-08
 3.62735e-08
 3.47995e-08
 3.33339e-08
 3.18763e-08
 3.04268e-08
 2.89838e-08
 2.75484e-08
 2.61225e-08
 2.47010e-08
 2.32860e-08
 2.18779e-08
 2.04747e-08
 1.90782e-08
 1.76868e-08
 1.63012e-08
 1.49200e-08
 1.35438e-08
 1.21724e-08
 1.08053e-08
 9.44188e-09
 8.08234e-09
 6.72773e-09
 5.37662e-09
 4.02785e-09
 2.68309e-09
 1.34067e-09
 1.00000e-60
)


51
(
 1.00000e-60
 1.59293e-11
 1.07524e-06
 9.63208e-06
 1.46371e-06
 1.58236e-08
 3.27116e-07
 7.96705e-12
 2.89333e-07
 2.95417e-07
 2.91448e-07
 2.85175e-07
 2.40606e-07
 2.70241e-07
 6.86876e-13
 1.96048e-07
 2.27295e-07
 2.29360e-07
 2.24909e-07
 2.18422e-07
 2.11256e-07
 2.03886e-07
 1.96475e-07
 1.89085e-07
 1.81729e-07
 1.74411e-07
 1.67134e-07
 1.59893e-07
 1.52686e-07
 1.45514e-07
 1.38369e-07
 1.31258e-07
 1.24173e-07
 1.17112e-07
 1.10078e-07
 1.03066e-07
 9.60774e-08
 8.91090e-08
 8.21608e-08
 7.52304e-08
 6.83185e-08
 6.14243e-08
 5.45466e-08
 4.76829e-08
 4.08314e-08
 3.39990e-08
 2.71787e-08
 2.03671e-08
 1.35703e-08
 6.78200e-09
 1.00000e-60
)


51
(
 1.00000e-60
 4.80569e-11
 1.16840e-06
 1.03191e-05
 1.55765e-06
 1.81729e-08
 6.46621e-07
 4.58197e-07
 2.67609e-07
 2.80638e-12
 4.35128e-12
 1.11247e-07
 2.51356e-12
 6.58287e-08
 1.55178e-12
 5.10167e-08
 4.74009e-08
 4.47810e-08
 4.27001e-08
 4.09072e-08
 3.92844e-08
 3.77561e-08
 3.62939e-08
 3.48753e-08
 3.34828e-08
 3.21150e-08
 3.07600e-08
 2.94190e-08
 2.80907e-08
 2.67663e-08
 2.54545e-08
 2.41415e-08
 2.28423e-08
 2.15472e-08
 2.02549e-08
 1.89699e-08
 1.76867e-08
 1.64085e-08
 1.51310e-08
 1.38580e-08
 1.25885e-08
 1.13220e-08
 1.00567e-08
 8.79363e-09
 7.53253e-09
 6.27340e-09
 5.01514e-09
 3.75875e-09
 2.50485e-09
 1.25204e-09
 1.00000e-60
)


51
(
 1.00000e-60
 8.57424e-11
 1.27330e-06
 1.10629e-05
 1.65650e-06
 2.10370e-08
 9.53403e-07
 9.79878e-07
 9.68948e-07
 9.46770e-07
 3.24631e-07
 1.49072e-07
 3.10672e-13
 3.04621e-13
 2.74350e-13
 2.06541e-13
 1.49792e-13
 1.06743e-13
 7.56073e-14
 5.36166e-14
 3.82321e-14
 2.74818e-14
 2.00219e-14
 1.48261e-14
 1.10685e-14
 8.39662e-15
 6.43620e-15
 4.99017e-15
 3.90290e-15
 3.08854e-15
 2.45172e-15
 1.96982e-15
 1.58947e-15
 1.28555e-15
 1.04513e-15
 8.54057e-16
 6.98426e-16
 5.71228e-16
 4.66944e-16
 3.81088e-16
 3.10087e-16
 2.51066e-16
 2.01681e-16
 1.60001e-16
 1.24453e-16
 9.58293e-17
 7.10227e-17
 4.89884e-17
 3.09143e-17
 1.47530e-17
 1.00000e-60
)


51
(
 1.00000e-60
 1.23428e-10
 1.39016e-06
 1.18818e-05
 1.76363e-06
 2.43557e-08
 1.36481e-06
 1.38236e-06
 1.36158e-06
 1.32938e-06
 1.05005e-06
 9.53472e-07
 8.58287e-07
 7.92601e-07
 7.33564e-07
 6.86957e-07
 6.54452e-07
 6.29047e-07
 6.06921e-07
 5.86267e-07
 5.66282e-07
 5.46615e-07
 5.27130e-07
 5.07762e-07
 4.88471e-07
 4.69254e-07
 4.50093e-07
 4.30984e-07
 4.11924e-07
 3.92909e-07
 3.73933e-07
 3.54995e-07
 3.36094e-07
 3.17225e-07
 2.98386e-07
 2.79579e-07
 2.60798e-07
 2.42043e-07
 2.23310e-07
 2.04603e-07
 1.85916e-07
 1.67250e-07
 1.48602e-07
 1.29973e-07
 1.11360e-07
 9.27680e-08
 7.41890e-08
 5.56212e-08
 3.70714e-08
 1.85319e-08
 1.00000e-60
)


51
(
 1.00000e-60
 1.61113e-10
 1.51920e-06
 1.27939e-05
 1.88239e-06
 2.80689e-08
 1.80834e-06
 1.85952e-06
 1.84056e-06
 1.80026e-06
 1.75410e-06
 1.70674e-06
 1.65940e-06
 1.61247e-06
 1.56598e-06
 1.51991e-06
 1.47421e-06
 1.42883e-06
 1.38373e-06
 1.33887e-06
 1.29422e-06
 1.24976e-06
 1.20547e-06
 1.16134e-06
 1.11734e-06
 1.07347e-06
 1.02972e-06
 9.86075e-07
 9.42525e-07
 8.99072e-07
 8.55695e-07
 8.12406e-07
 7.69189e-07
 7.26037e-07
 6.82953e-07
 6.39933e-07
 5.96969e-07
 5.54059e-07
 5.11200e-07
 4.68390e-07
 4.25625e-07
 3.82904e-07
 3.40224e-07
 2.97581e-07
 2.54973e-07
 2.12408e-07
 1.69873e-07
 1.27362e-07
 8.48877e-08
 4.24358e-08
 1.00000e-60
)


51
(
 1.00000e-60
 3.31841e-10
 1.66062e-06
 1.38174e-05
 2.01615e-06
 3.21165e-08
 2.53136e-06
 2.56702e-06
 2.53111e-06
 2.47354e-06
 2.41014e-06
 2.34564e-06
 2.28127e-06
 2.21740e-06
 2.15407e-06
 2.09122e-06
 2.02881e-06
 1.96677e-06
 1.90505e-06
 1.84362e-06
 1.78244e-06
 1.72148e-06
 1.66072e-06
 1.60015e-06
 1.53973e-06
 1.47947e-06
 1.41934e-06
 1.35934e-06
 1.29945e-06
 1.23967e-06
 1.17998e-06
 1.12039e-06
 1.06089e-06
 1.00146e-06
 9.42114e-07
 8.82842e-07
 8.23635e-07
 7.64490e-07
 7.05405e-07
 6.46376e-07
 5.87400e-07
 5.28476e-07
 4.69599e-07
 4.10766e-07
 3.51972e-07
 2.93230e-07
 2.34522e-07
 1.75841e-07
 1.17204e-07
 5.85925e-08
 1.00000e-60
)


51
(
 1.00000e-60
 5.37601e-10
 1.81466e-06
 1.49707e-05
 2.16825e-06
 3.64385e-08
 3.25438e-06
 3.27453e-06
 3.23655e-06
 3.16633e-06
 3.08662e-06
 3.00480e-06
 2.92288e-06
 2.84149e-06
 2.76071e-06
 2.68050e-06
 2.60080e-06
 2.52154e-06
 2.44266e-06
 2.36412e-06
 2.28588e-06
 2.20789e-06
 2.13014e-06
 2.05260e-06
 1.97525e-06
 1.89807e-06
 1.82106e-06
 1.74418e-06
 1.66744e-06
 1.59083e-06
 1.51432e-06
 1.43793e-06
 1.36163e-06
 1.28543e-06
 1.20931e-06
 1.13328e-06
 1.05733e-06
 9.81446e-07
 9.05631e-07
 8.29880e-07
 7.54191e-07
 6.78562e-07
 6.02986e-07
 5.27460e-07
 4.51978e-07
 3.76557e-07
 3.01174e-07
 2.25823e-07
 1.50522e-07
 7.52501e-08
 1.00000e-60
)


51
(
 1.00000e-60
 7.43360e-10
 1.98151e-06
 1.62717e-05
 2.34207e-06
 4.09746e-08
 4.29774e-06
 4.35032e-06
 4.28873e-06
 4.19245e-06
 4.08671e-06
 3.97900e-06
 3.87132e-06
 3.76428e-06
 3.65794e-06
 3.55227e-06
 3.44718e-06
 3.34260e-06
 3.23846e-06
 3.13470e-06
 3.03128e-06
 2.92816e-06
 2.82532e-06
 2.72272e-06
 2.62034e-06
 2.51816e-06
 2.41617e-06
 2.31434e-06
 2.21266e-06
 2.11114e-06
 2.00974e-06
 1.90847e-06
 1.80731e-06
 1.70626e-06
 1.60531e-06
 1.50446e-06
 1.40370e-06
 1.30302e-06
 1.20241e-06
 1.10189e-06
 1.00143e-06
 9.01046e-07
 8.00721e-07
 7.00454e-07
 6.00238e-07
 5.00091e-07
 3.99991e-07
 2.99926e-07
 1.99920e-07
 9.99472e-08
 1.00000e-60
)


51
(
 1.00000e-60
 1.56215e-09
 2.16140e-06
 1.77389e-05
 2.54095e-06
 4.56648e-08
 5.52990e-06
 5.60983e-06
 5.53478e-06
 5.41252e-06
 5.27723e-06
 5.13909e-06
 5.00080e-06
 4.86322e-06
 4.72644e-06
 4.59043e-06
 4.45510e-06
 4.32036e-06
 4.18613e-06
 4.05235e-06
 3.91896e-06
 3.78592e-06
 3.65320e-06
 3.52077e-06
 3.38859e-06
 3.25665e-06
 3.12491e-06
 2.99338e-06
 2.86201e-06
 2.73083e-06
 2.59978e-06
 2.46889e-06
 2.33813e-06
 2.20748e-06
 2.07696e-06
 1.94656e-06
 1.81625e-06
 1.68604e-06
 1.55591e-06
 1.42588e-06
 1.29593e-06
 1.16605e-06
 1.03625e-06
 9.06517e-07
 7.76840e-07
 6.47244e-07
 5.17700e-07
 3.88197e-07
 2.58762e-07
 1.29366e-07
 1.00000e-60
)


51
(
 1.00000e-60
 2.42708e-09
 2.35455e-06
 1.93903e-05
 2.76825e-06
 5.04489e-08
 7.09586e-06
 7.21341e-06
 7.12199e-06
 6.96688e-06
 6.79409e-06
 6.61728e-06
 6.44009e-06
 6.26368e-06
 6.08820e-06
 5.91361e-06
 5.73980e-06
 5.56668e-06
 5.39416e-06
 5.22215e-06
 5.05061e-06
 4.87946e-06
 4.70869e-06
 4.53826e-06
 4.36810e-06
 4.19824e-06
 4.02861e-06
 3.85921e-06
 3.69001e-06
 3.52102e-06
 3.35219e-06
 3.18353e-06
 3.01503e-06
 2.84667e-06
 2.67844e-06
 2.51035e-06
 2.34238e-06
 2.17451e-06
 2.00675e-06
 1.83909e-06
 1.67152e-06
 1.50404e-06
 1.33665e-06
 1.16933e-06
 1.00208e-06
 8.34929e-07
 6.67833e-07
 5.00784e-07
 3.33814e-07
 1.66890e-07
 1.00000e-60
)


51
(
 1.00000e-60
 3.29201e-09
 2.56116e-06
 2.12441e-05
 3.02734e-06
 5.52668e-08
 9.04425e-06
 9.11740e-06
 8.98025e-06
 8.77930e-06
 8.56090e-06
 8.33874e-06
 8.11639e-06
 7.89497e-06
 7.67461e-06
 7.45525e-06
 7.23676e-06
 7.01904e-06
 6.80198e-06
 6.58551e-06
 6.36956e-06
 6.15406e-06
 5.93898e-06
 5.72429e-06
 5.50992e-06
 5.29586e-06
 5.08209e-06
 4.86857e-06
 4.65529e-06
 4.44223e-06
 4.22937e-06
 4.01670e-06
 3.80422e-06
 3.59189e-06
 3.37971e-06
 3.16769e-06
 2.95580e-06
 2.74404e-06
 2.53239e-06
 2.32087e-06
 2.10945e-06
 1.89813e-06
 1.68691e-06
 1.47577e-06
 1.26472e-06
 1.05377e-06
 8.42889e-07
 6.32063e-07
 4.21327e-07
 2.10644e-07
 1.00000e-60
)


51
(
 1.00000e-60
 6.56688e-09
 2.78145e-06
 2.33187e-05
 3.32158e-06
 6.00584e-08
 1.14501e-05
 1.15646e-05
 1.13976e-05
 1.11453e-05
 1.08695e-05
 1.05886e-05
 1.03073e-05
 1.00270e-05
 9.74799e-06
 9.47010e-06
 9.19321e-06
 8.91720e-06
 8.64197e-06
 8.36740e-06
 8.09344e-06
 7.81999e-06
 7.54702e-06
 7.27450e-06
 7.00235e-06
 6.73058e-06
 6.45912e-06
 6.18795e-06
 5.91706e-06
 5.64643e-06
 5.37602e-06
 5.10584e-06
 4.83586e-06
 4.56607e-06
 4.29645e-06
 4.02702e-06
 3.75773e-06
 3.48859e-06
 3.21959e-06
 2.95072e-06
 2.68197e-06
 2.41335e-06
 2.14483e-06
 1.87641e-06
 1.60809e-06
 1.33989e-06
 1.07176e-06
 8.03703e-07
 5.35746e-07
 2.67851e-07
 1.00000e-60
)


51
(
 1.00000e-60
 9.96902e-09
 3.01565e-06
 2.56322e-05
 3.65431e-06
 6.47635e-08
 1.44790e-05
 1.46503e-05
 1.44460e-05
 1.41287e-05
 1.37806e-05
 1.34255e-05
 1.30699e-05
 1.27156e-05
 1.23627e-05
 1.20111e-05
 1.16607e-05
 1.13113e-05
 1.09628e-05
 1.06151e-05
 1.02680e-05
 9.92160e-06
 9.57569e-06
 9.23028e-06
 8.88531e-06
 8.54076e-06
 8.19656e-06
 7.85271e-06
 7.50917e-06
 7.16594e-06
 6.82295e-06
 6.48022e-06
 6.13773e-06
 5.79545e-06
 5.45337e-06
 5.11150e-06
 4.76979e-06
 4.42825e-06
 4.08687e-06
 3.74565e-06
 3.40456e-06
 3.06362e-06
 2.72280e-06
 2.38210e-06
 2.04150e-06
 1.70102e-06
 1.36065e-06
 1.02036e-06
 6.80168e-07
 3.40064e-07
 1.00000e-60
)


51
(
 1.00000e-60
 1.33712e-08
 3.26395e-06
 2.82027e-05
 4.02890e-06
 6.93221e-08
 1.80552e-05
 1.82361e-05
 1.79781e-05
 1.75824e-05
 1.71497e-05
 1.67086e-05
 1.62671e-05
 1.58272e-05
 1.53889e-05
 1.49522e-05
 1.45168e-05
 1.40826e-05
 1.36493e-05
 1.32169e-05
 1.27853e-05
 1.23544e-05
 1.19241e-05
 1.14943e-05
 1.10651e-05
 1.06363e-05
 1.02079e-05
 9.77997e-06
 9.35234e-06
 8.92506e-06
 8.49807e-06
 8.07136e-06
 7.64493e-06
 7.21874e-06
 6.79277e-06
 6.36705e-06
 5.94151e-06
 5.51615e-06
 5.09098e-06
 4.66599e-06
 4.24116e-06
 3.81647e-06
 3.39195e-06
 2.96757e-06
 2.54330e-06
 2.11914e-06
 1.69513e-06
 1.27121e-06
 8.47381e-07
 4.23673e-07
 1.00000e-60
)


51
(
 1.00000e-60
 2.27477e-08
 3.52659e-06
 3.10485e-05
 4.44871e-06
 7.36740e-08
 2.25891e-05
 2.28475e-05
 2.25362e-05
 2.20434e-05
 2.15022e-05
 2.09502e-05
 2.03977e-05
 1.98471e-05
 1.92985e-05
 1.87518e-05
 1.82066e-05
 1.76628e-05
 1.71201e-05
 1.65784e-05
 1.60376e-05
 1.54976e-05
 1.49583e-05
 1.44196e-05
 1.38815e-05
 1.33439e-05
 1.28068e-05
 1.22702e-05
 1.17339e-05
 1.11981e-05
 1.06626e-05
 1.01273e-05
 9.59246e-06
 9.05786e-06
 8.52352e-06
 7.98944e-06
 7.45559e-06
 6.92195e-06
 6.38851e-06
 5.85529e-06
 5.32224e-06
 4.78937e-06
 4.25668e-06
 3.72415e-06
 3.19176e-06
 2.65948e-06
 2.12737e-06
 1.59537e-06
 1.06347e-06
 5.31716e-07
 1.00000e-60
)


51
(
 1.00000e-60
 4.05679e-08
 3.80377e-06
 3.41879e-05
 4.91709e-06
 7.77592e-08
 2.82381e-05
 2.85465e-05
 2.81373e-05
 2.75165e-05
 2.68402e-05
 2.61521e-05
 2.54637e-05
 2.47778e-05
 2.40944e-05
 2.34130e-05
 2.27335e-05
 2.20555e-05
 2.13787e-05
 2.07030e-05
 2.00284e-05
 1.93546e-05
 1.86816e-05
 1.80094e-05
 1.73377e-05
 1.66667e-05
 1.59962e-05
 1.53263e-05
 1.46567e-05
 1.39877e-05
 1.33190e-05
 1.26507e-05
 1.19827e-05
 1.13151e-05
 1.06477e-05
 9.98070e-06
 9.31393e-06
 8.64739e-06
 7.98109e-06
 7.31504e-06
 6.64918e-06
 5.98352e-06
 5.31807e-06
 4.65280e-06
 3.98769e-06
 3.32271e-06
 2.65793e-06
 1.99327e-06
 1.32872e-06
 6.64339e-07
 1.00000e-60
)


51
(
 1.00000e-60
 9.83719e-08
 4.09572e-06
 3.76389e-05
 5.43741e-06
 8.15174e-08
 3.53660e-05
 3.56582e-05
 3.51451e-05
 3.43683e-05
 3.35235e-05
 3.26649e-05
 3.18064e-05
 3.09511e-05
 3.00987e-05
 2.92489e-05
 2.84012e-05
 2.75552e-05
 2.67107e-05
 2.58674e-05
 2.50252e-05
 2.41840e-05
 2.33438e-05
 2.25043e-05
 2.16655e-05
 2.08275e-05
 1.99900e-05
 1.91531e-05
 1.83168e-05
 1.74809e-05
 1.66455e-05
 1.58105e-05
 1.49760e-05
 1.41418e-05
 1.33079e-05
 1.24744e-05
 1.16412e-05
 1.08082e-05
 9.97557e-06
 9.14317e-06
 8.31100e-06
 7.47906e-06
 6.64736e-06
 5.81586e-06
 4.98454e-06
 4.15337e-06
 3.32242e-06
 2.49161e-06
 1.66094e-06
 8.30442e-07
 1.00000e-60
)


51
(
 1.00000e-60
 2.29034e-06
 4.40264e-06
 4.14199e-05
 6.01302e-06
 8.48885e-08
 4.43851e-05
 4.47752e-05
 4.40986e-05
 4.31147e-05
 4.20533e-05
 4.09772e-05
 3.99021e-05
 3.88310e-05
 3.77635e-05
 3.66990e-05
 3.56370e-05
 3.45769e-05
 3.35184e-05
 3.24613e-05
 3.14054e-05
 3.03507e-05
 2.92969e-05