/*--------------------------------*- C++ -*----------------------------------*\
| =========                 |                                                 |
| \      /  F ield          | OpenFOAM: The Open Source CFD Toolbox           |
|  \    /   O peration      | Version:  7                                     |
|   \  /    A nd            | Web:      http://www.OpenFOAM.com               |
|    \/     M anipulation   |                                                 |
\*---------------------------------------------------------------------------*/
FoamFile 
{   version     2.0;
    format      ascii;
    class       dictionary;
    location    "constant";
    object      LDMtable;
}
// * * * * * * * * * * * * * * * * * * * * * * * * * * * * * * * * * * * * * //

O2_table
51
(

51
(
 2.32882e-01
 2.28224e-01
 2.23872e-01
 2.18970e-01
 2.14277e-01
 2.09782e-01
 2.04936e-01
 2.00279e-01
 1.95621e-01
 1.90963e-01
 1.86306e-01
 1.81648e-01
 1.76990e-01
 1.72333e-01
 1.67675e-01
 1.63018e-01
 1.58360e-01
 1.53702e-01
 1.49045e-01
 1.44387e-01
 1.39729e-01
 1.35072e-01
 1.30414e-01
 1.25756e-01
 1.21099e-01
 1.16441e-01
 1.11783e-01
 1.07126e-01
 1.02468e-01
 9.78105e-02
 9.31529e-02
 8.84952e-02
 8.38376e-02
 7.91799e-02
 7.45223e-02
 6.98646e-02
 6.52070e-02
 6.05494e-02
 5.58917e-02
 5.12341e-02
 4.65764e-02
 4.19188e-02
 3.72611e-02
 3.26035e-02
 2.79459e-02
 2.32882e-02
 1.86306e-02
 1.39729e-02
 9.31529e-03
 4.65764e-03
 1.00000e-60
)


51
(
 2.32882e-01
 2.26613e-01
 2.23823e-01
 2.18910e-01
 2.14195e-01
 2.09147e-01
 2.00066e-01
 1.95495e-01
 1.90941e-01
 1.86393e-01
 1.81849e-01
 1.77309e-01
 1.72772e-01
 1.68233e-01
 1.63684e-01
 1.59137e-01
 1.54590e-01
 1.50044e-01
 1.45497e-01
 1.40950e-01
 1.36403e-01
 1.31856e-01
 1.27310e-01
 1.22763e-01
 1.18216e-01
 1.13669e-01
 1.09123e-01
 1.04576e-01
 1.00029e-01
 9.54823e-02
 9.09355e-02
 8.63887e-02
 8.18419e-02
 7.72952e-02
 7.27484e-02
 6.82016e-02
 6.36548e-02
 5.91081e-02
 5.45613e-02
 5.00145e-02
 4.54677e-02
 4.09210e-02
 3.63742e-02
 3.18274e-02
 2.72806e-02
 2.27339e-02
 1.81871e-02
 1.36403e-02
 9.09355e-03
 4.54677e-03
 1.00000e-60
)


51
(
 2.32882e-01
 2.25001e-01
 2.23374e-01
 2.18360e-01
 2.13656e-01
 2.08110e-01
 1.95195e-01
 1.90711e-01
 1.86261e-01
 1.81823e-01
 1.77392e-01
 1.72969e-01
 1.68553e-01
 1.64134e-01
 1.59693e-01
 1.55257e-01
 1.50821e-01
 1.46385e-01
 1.41949e-01
 1.37513e-01
 1.33077e-01
 1.28641e-01
 1.24205e-01
 1.19769e-01
 1.15334e-01
 1.10898e-01
 1.06462e-01
 1.02026e-01
 9.75899e-02
 9.31540e-02
 8.87181e-02
 8.42822e-02
 7.98463e-02
 7.54104e-02
 7.09745e-02
 6.65386e-02
 6.21027e-02
 5.76668e-02
 5.32309e-02
 4.87950e-02
 4.43591e-02
 3.99232e-02
 3.54873e-02
 3.10513e-02
 2.66154e-02
 2.21795e-02
 1.77436e-02
 1.33077e-02
 8.87182e-03
 4.43591e-03
 1.00000e-60
)


51
(
 2.32882e-01
 2.23389e-01
 2.22479e-01
 2.17260e-01
 2.12613e-01
 2.06773e-01
 1.90325e-01
 1.85927e-01
 1.81581e-01
 1.77253e-01
 1.72935e-01
 1.68630e-01
 1.64334e-01
 1.60035e-01
 1.55701e-01
 1.51376e-01
 1.47051e-01
 1.42726e-01
 1.38401e-01
 1.34076e-01
 1.29751e-01
 1.25426e-01
 1.21101e-01
 1.16776e-01
 1.12451e-01
 1.08126e-01
 1.03801e-01
 9.94759e-02
 9.51508e-02
 9.08258e-02
 8.65008e-02
 8.21757e-02
 7.78507e-02
 7.35257e-02
 6.92006e-02
 6.48756e-02
 6.05505e-02
 5.62255e-02
 5.19005e-02
 4.75754e-02
 4.32504e-02
 3.89254e-02
 3.46003e-02
 3.02753e-02
 2.59502e-02
 2.16252e-02
 1.73002e-02
 1.29751e-02
 8.65008e-03
 4.32504e-03
 1.00000e-60
)


51
(
 2.32882e-01
 2.21778e-01
 2.21166e-01
 2.15646e-01
 2.11097e-01
 2.05149e-01
 1.85454e-01
 1.81143e-01
 1.76901e-01
 1.72683e-01
 1.68479e-01
 1.64291e-01
 1.60115e-01
 1.55935e-01
 1.51710e-01
 1.47496e-01
 1.43282e-01
 1.39068e-01
 1.34853e-01
 1.30639e-01
 1.26425e-01
 1.22211e-01
 1.17997e-01
 1.13783e-01
 1.09568e-01
 1.05354e-01
 1.01140e-01
 9.69259e-02
 9.27117e-02
 8.84976e-02
 8.42834e-02
 8.00692e-02
 7.58551e-02
 7.16409e-02
 6.74267e-02
 6.32126e-02
 5.89984e-02
 5.47842e-02
 5.05700e-02
 4.63559e-02
 4.21417e-02
 3.79275e-02
 3.37134e-02
 2.94992e-02
 2.52850e-02
 2.10709e-02
 1.68567e-02
 1.26425e-02
 8.42834e-03
 4.21417e-03
 1.00000e-60
)


51
(
 2.32882e-01
 2.20388e-01
 2.19466e-01
 2.13552e-01
 2.09141e-01
 2.03256e-01
 1.80584e-01
 1.76359e-01
 1.72220e-01
 1.68112e-01
 1.64022e-01
 1.59952e-01
 1.55897e-01
 1.51836e-01
 1.47719e-01
 1.43616e-01
 1.39512e-01
 1.35409e-01
 1.31306e-01
 1.27202e-01
 1.23099e-01
 1.18996e-01
 1.14892e-01
 1.10789e-01
 1.06686e-01
 1.02583e-01
 9.84793e-02
 9.43759e-02
 9.02727e-02
 8.61694e-02
 8.20661e-02
 7.79628e-02
 7.38594e-02
 6.97561e-02
 6.56529e-02
 6.15495e-02
 5.74462e-02
 5.33429e-02
 4.92396e-02
 4.51363e-02
 4.10330e-02
 3.69297e-02
 3.28264e-02
 2.87231e-02
 2.46198e-02
 2.05165e-02
 1.64132e-02
 1.23099e-02
 8.20661e-03
 4.10330e-03
 1.00000e-60
)


51
(
 2.32882e-01
 2.19138e-01
 2.17409e-01
 2.11014e-01
 2.06774e-01
 2.01108e-01
 1.75714e-01
 1.71575e-01
 1.67540e-01
 1.63542e-01
 1.59565e-01
 1.55612e-01
 1.51678e-01
 1.47736e-01
 1.43728e-01
 1.39735e-01
 1.35743e-01
 1.31750e-01
 1.27758e-01
 1.23765e-01
 1.19773e-01
 1.15781e-01
 1.11788e-01
 1.07796e-01
 1.03803e-01
 9.98108e-02
 9.58184e-02
 9.18260e-02
 8.78336e-02
 8.38411e-02
 7.98487e-02
 7.58563e-02
 7.18638e-02
 6.78714e-02
 6.38790e-02
 5.98865e-02
 5.58941e-02
 5.19017e-02
 4.79092e-02
 4.39168e-02
 3.99243e-02
 3.59319e-02
 3.19395e-02
 2.79470e-02
 2.39546e-02
 1.99622e-02
 1.59697e-02
 1.19773e-02
 7.98487e-03
 3.99243e-03
 1.00000e-60
)


51
(
 2.32882e-01
 2.17837e-01
 2.15024e-01
 2.08065e-01
 2.04029e-01
 1.98722e-01
 1.70843e-01
 1.66792e-01
 1.62860e-01
 1.58972e-01
 1.55108e-01
 1.51273e-01
 1.47459e-01
 1.43637e-01
 1.39736e-01
 1.35855e-01
 1.31973e-01
 1.28092e-01
 1.24210e-01
 1.20329e-01
 1.16447e-01
 1.12565e-01
 1.08684e-01
 1.04802e-01
 1.00921e-01
 9.70392e-02
 9.31576e-02
 8.92760e-02
 8.53945e-02
 8.15129e-02
 7.76313e-02
 7.37498e-02
 6.98682e-02
 6.59866e-02
 6.21051e-02
 5.82235e-02
 5.43419e-02
 5.04604e-02
 4.65788e-02
 4.26972e-02
 3.88157e-02
 3.49341e-02
 3.10525e-02
 2.71710e-02
 2.32894e-02
 1.94078e-02
 1.55263e-02
 1.16447e-02
 7.76313e-03
 3.88157e-03
 1.00000e-60
)


51
(
 2.32882e-01
 2.16490e-01
 2.12342e-01
 2.04742e-01
 2.00935e-01
 1.96113e-01
 1.65973e-01
 1.62008e-01
 1.58180e-01
 1.54402e-01
 1.50652e-01
 1.46934e-01
 1.43240e-01
 1.39537e-01
 1.35745e-01
 1.31974e-01
 1.28204e-01
 1.24433e-01
 1.20662e-01
 1.16892e-01
 1.13121e-01
 1.09350e-01
 1.05580e-01
 1.01809e-01
 9.80382e-02
 9.42675e-02
 9.04968e-02
 8.67261e-02
 8.29554e-02
 7.91847e-02
 7.54140e-02
 7.16433e-02
 6.78726e-02
 6.41019e-02
 6.03312e-02
 5.65605e-02
 5.27898e-02
 4.90191e-02
 4.52484e-02
 4.14777e-02
 3.77070e-02
 3.39363e-02
 3.01656e-02
 2.63949e-02
 2.26242e-02
 1.88535e-02
 1.50828e-02
 1.13121e-02
 7.54140e-03
 3.77070e-03
 1.00000e-60
)


51
(
 2.32882e-01
 2.15111e-01
 2.09391e-01
 2.01078e-01
 1.97524e-01
 1.93297e-01
 1.61294e-01
 1.57224e-01
 1.53500e-01
 1.49832e-01
 1.46195e-01
 1.42595e-01
 1.39021e-01
 1.35438e-01
 1.31754e-01
 1.28094e-01
 1.24434e-01
 1.20774e-01
 1.17115e-01
 1.13455e-01
 1.09795e-01
 1.06135e-01
 1.02475e-01
 9.88154e-02
 9.51556e-02
 9.14958e-02
 8.78359e-02
 8.41761e-02
 8.05163e-02
 7.68565e-02
 7.31966e-02
 6.95368e-02
 6.58770e-02
 6.22171e-02
 5.85573e-02
 5.48975e-02
 5.12376e-02
 4.75778e-02
 4.39180e-02
 4.02581e-02
 3.65983e-02
 3.29385e-02
 2.92786e-02
 2.56188e-02
 2.19590e-02
 1.82992e-02
 1.46393e-02
 1.09795e-02
 7.31966e-03
 3.65983e-03
 1.00000e-60
)


51
(
 2.32882e-01
 2.13711e-01
 2.06202e-01
 1.97110e-01
 1.93827e-01
 1.90290e-01
 1.57649e-01
 1.52440e-01
 1.48820e-01
 1.45261e-01
 1.41738e-01
 1.38255e-01
 1.34803e-01
 1.31339e-01
 1.27763e-01
 1.24214e-01
 1.20665e-01
 1.17116e-01
 1.13567e-01
 1.10018e-01
 1.06469e-01
 1.02920e-01
 9.93710e-02
 9.58220e-02
 9.22731e-02
 8.87241e-02
 8.51751e-02
 8.16261e-02
 7.80772e-02
 7.45282e-02
 7.09793e-02
 6.74303e-02
 6.38813e-02
 6.03324e-02
 5.67834e-02
 5.32344e-02
 4.96855e-02
 4.61365e-02
 4.25876e-02
 3.90386e-02
 3.54896e-02
 3.19407e-02
 2.83917e-02
 2.48427e-02
 2.12938e-02
 1.77448e-02
 1.41959e-02
 1.06469e-02
 7.09793e-03
 3.54896e-03
 1.00000e-60
)


51
(
 2.32882e-01
 2.12287e-01
 2.02806e-01
 1.92871e-01
 1.89875e-01
 1.87108e-01
 1.53915e-01
 1.48260e-01
 1.44140e-01
 1.40691e-01
 1.37281e-01
 1.33916e-01
 1.30584e-01
 1.27239e-01
 1.23771e-01
 1.20333e-01
 1.16895e-01
 1.13457e-01
 1.10019e-01
 1.06581e-01
 1.03143e-01
 9.97048e-02
 9.62667e-02
 9.28286e-02
 8.93905e-02
 8.59524e-02
 8.25143e-02
 7.90762e-02
 7.56381e-02
 7.22000e-02
 6.87619e-02
 6.53238e-02
 6.18857e-02
 5.84476e-02
 5.50095e-02
 5.15714e-02
 4.81333e-02
 4.46952e-02
 4.12571e-02
 3.78190e-02
 3.43810e-02
 3.09429e-02
 2.75048e-02
 2.40667e-02
 2.06286e-02
 1.71905e-02
 1.37524e-02
 1.03143e-02
 6.87619e-03
 3.43809e-03
 1.00000e-60
)


51
(
 2.32882e-01
 2.10841e-01
 1.99230e-01
 1.88396e-01
 1.85698e-01
 1.83765e-01
 1.50077e-01
 1.44670e-01
 1.39460e-01
 1.36121e-01
 1.32824e-01
 1.29577e-01
 1.26365e-01
 1.23140e-01
 1.19780e-01
 1.16453e-01
 1.13126e-01
 1.09798e-01
 1.06471e-01
 1.03144e-01
 9.98168e-02
 9.64896e-02
 9.31624e-02
 8.98351e-02
 8.65079e-02
 8.31807e-02
 7.98535e-02
 7.65262e-02
 7.31990e-02
 6.98718e-02
 6.65446e-02
 6.32173e-02
 5.98901e-02
 5.65629e-02
 5.32356e-02
 4.99084e-02
 4.65812e-02
 4.32540e-02
 3.99267e-02
 3.65995e-02
 3.32723e-02
 2.99450e-02
 2.66178e-02
 2.32906e-02
 1.99634e-02
 1.66361e-02
 1.33089e-02
 9.98168e-03
 6.65445e-03
 3.32723e-03
 1.00000e-60
)


51
(
 2.32882e-01
 2.09385e-01
 1.95506e-01
 1.83721e-01
 1.81329e-01
 1.80279e-01
 1.46193e-01
 1.40998e-01
 1.35652e-01
 1.31551e-01
 1.28368e-01
 1.25237e-01
 1.22146e-01
 1.19040e-01
 1.15789e-01
 1.12573e-01
 1.09356e-01
 1.06140e-01
 1.02923e-01
 9.97071e-02
 9.64908e-02
 9.32744e-02
 9.00581e-02
 8.68417e-02
 8.36254e-02
 8.04090e-02
 7.71926e-02
 7.39763e-02
 7.07599e-02
 6.75436e-02
 6.43272e-02
 6.11108e-02
 5.78945e-02
 5.46781e-02
 5.14618e-02
 4.82454e-02
 4.50290e-02
 4.18127e-02
 3.85963e-02
 3.53800e-02
 3.21636e-02
 2.89472e-02
 2.57309e-02
 2.25145e-02
 1.92982e-02
 1.60818e-02
 1.28654e-02
 9.64908e-03
 6.43272e-03
 3.21636e-03
 1.00000e-60
)


51
(
 2.32882e-01
 2.07891e-01
 1.91663e-01
 1.78881e-01
 1.76798e-01
 1.76664e-01
 1.42208e-01
 1.37248e-01
 1.32138e-01
 1.26981e-01
 1.23911e-01
 1.20898e-01
 1.17927e-01
 1.14941e-01
 1.11798e-01
 1.08692e-01
 1.05587e-01
 1.02481e-01
 9.93757e-02
 9.62702e-02
 9.31647e-02
 9.00593e-02
 8.69538e-02
 8.38483e-02
 8.07428e-02
 7.76373e-02
 7.45318e-02
 7.14263e-02
 6.83208e-02
 6.52153e-02
 6.21098e-02
 5.90043e-02
 5.58988e-02
 5.27934e-02
 4.96879e-02
 4.65824e-02
 4.34769e-02
 4.03714e-02
 3.72659e-02
 3.41604e-02
 3.10549e-02
 2.79494e-02
 2.48439e-02
 2.17384e-02
 1.86329e-02
 1.55275e-02
 1.24220e-02
 9.31647e-03
 6.21098e-03
 3.10549e-03
 1.00000e-60
)


51
(
 2.32882e-01
 2.06388e-01
 1.87730e-01
 1.73909e-01
 1.72136e-01
 1.72936e-01
 1.38183e-01
 1.33438e-01
 1.28555e-01
 1.23434e-01
 1.19454e-01
 1.16559e-01
 1.13709e-01
 1.10841e-01
 1.07806e-01
 1.04812e-01
 1.01817e-01
 9.88225e-02
 9.58279e-02
 9.28333e-02
 8.98387e-02
 8.68441e-02
 8.38495e-02
 8.08548e-02
 7.78602e-02
 7.48656e-02
 7.18710e-02
 6.88763e-02
 6.58817e-02
 6.28871e-02
 5.98925e-02
 5.68979e-02
 5.39032e-02
 5.09086e-02
 4.79140e-02
 4.49193e-02
 4.19247e-02
 3.89301e-02
 3.59355e-02
 3.29409e-02
 2.99462e-02
 2.69516e-02
 2.39570e-02
 2.09624e-02
 1.79677e-02
 1.49731e-02
 1.19785e-02
 8.98387e-03
 5.98925e-03
 2.99462e-03
 1.00000e-60
)


51
(
 2.32882e-01
 2.04867e-01
 1.83739e-01
 1.68842e-01
 1.67375e-01
 1.69112e-01
 1.34064e-01
 1.29595e-01
 1.24930e-01
 1.20016e-01
 1.14997e-01
 1.12220e-01
 1.09490e-01
 1.06742e-01
 1.03815e-01
 1.00931e-01
 9.80476e-02
 9.51639e-02
 9.22801e-02
 8.93964e-02
 8.65127e-02
 8.36289e-02
 8.07452e-02
 7.78614e-02
 7.49777e-02
 7.20939e-02
 6.92101e-02
 6.63264e-02
 6.34426e-02
 6.05589e-02
 5.76751e-02
 5.47914e-02
 5.19076e-02
 4.90238e-02
 4.61401e-02
 4.32563e-02
 4.03726e-02
 3.74888e-02
 3.46051e-02
 3.17213e-02
 2.88376e-02
 2.59538e-02
 2.30700e-02
 2.01863e-02
 1.73025e-02
 1.44188e-02
 1.15350e-02
 8.65126e-03
 5.76751e-03
 2.88375e-03
 1.00000e-60
)


51
(
 2.32882e-01
 2.03308e-01
 1.79718e-01
 1.63713e-01
 1.62544e-01
 1.65206e-01
 1.29946e-01
 1.25664e-01
 1.21223e-01
 1.16548e-01
 1.11632e-01
 1.07880e-01
 1.05271e-01
 1.02643e-01
 9.98239e-02
 9.70510e-02
 9.42781e-02
 9.15052e-02
 8.87324e-02
 8.59595e-02
 8.31866e-02
 8.04137e-02
 7.76409e-02
 7.48680e-02
 7.20951e-02
 6.93222e-02
 6.65493e-02
 6.37764e-02
 6.10035e-02
 5.82307e-02
 5.54578e-02
 5.26849e-02
 4.99120e-02
 4.71391e-02
 4.43662e-02
 4.15933e-02
 3.88204e-02
 3.60475e-02
 3.32746e-02
 3.05018e-02
 2.77289e-02
 2.49560e-02
 2.21831e-02
 1.94102e-02
 1.66373e-02
 1.38644e-02
 1.10915e-02
 8.31866e-03
 5.54577e-03
 2.77289e-03
 1.00000e-60
)


51
(
 2.32882e-01
 2.01713e-01
 1.75697e-01
 1.58559e-01
 1.57675e-01
 1.61235e-01
 1.25771e-01
 1.21714e-01
 1.17515e-01
 1.13061e-01
 1.08336e-01
 1.03541e-01
 1.01052e-01
 9.85432e-02
 9.58327e-02
 9.31706e-02
 9.05086e-02
 8.78466e-02
 8.51846e-02
 8.25226e-02
 7.98606e-02
 7.71986e-02
 7.45366e-02
 7.18745e-02
 6.92125e-02
 6.65505e-02
 6.38885e-02
 6.12265e-02
 5.85644e-02
 5.59024e-02
 5.32404e-02
 5.05784e-02
 4.79164e-02
 4.52543e-02
 4.25923e-02
 3.99303e-02
 3.72683e-02
 3.46063e-02
 3.19442e-02
 2.92822e-02
 2.66202e-02
 2.39582e-02
 2.12962e-02
 1.86341e-02
 1.59721e-02
 1.33101e-02
 1.06481e-02
 7.98606e-03
 5.32404e-03
 2.66202e-03
 1.00000e-60
)


51
(
 2.32882e-01
 2.00096e-01
 1.71706e-01
 1.53413e-01
 1.52800e-01
 1.57215e-01
 1.21587e-01
 1.17719e-01
 1.13757e-01
 1.09511e-01
 1.05017e-01
 1.00368e-01
 9.68335e-02
 9.44438e-02
 9.18414e-02
 8.92902e-02
 8.67391e-02
 8.41879e-02
 8.16368e-02
 7.90857e-02
 7.65345e-02
 7.39834e-02
 7.14323e-02
 6.88811e-02
 6.63300e-02
 6.37788e-02
 6.12277e-02
 5.86765e-02
 5.61254e-02
 5.35742e-02
 5.10231e-02
 4.84719e-02
 4.59207e-02
 4.33696e-02
 4.08184e-02
 3.82673e-02
 3.57161e-02
 3.31650e-02
 3.06138e-02
 2.80627e-02
 2.55115e-02
 2.29604e-02
 2.04092e-02
 1.78581e-02
 1.53069e-02
 1.27558e-02
 1.02046e-02
 7.65345e-03
 5.10230e-03
 2.55115e-03
 1.00000e-60
)


51
(
 2.32882e-01
 1.98426e-01
 1.67775e-01
 1.48310e-01
 1.47949e-01
 1.53160e-01
 1.17404e-01
 1.13723e-01
 1.09970e-01
 1.05955e-01
 1.01683e-01
 9.72386e-02
 9.27705e-02
 9.03444e-02
 8.78502e-02
 8.54098e-02
 8.29696e-02
 8.05293e-02
 7.80890e-02
 7.56488e-02
 7.32085e-02
 7.07682e-02
 6.83280e-02
 6.58877e-02
 6.34474e-02
 6.10071e-02
 5.85668e-02
 5.61265e-02
 5.36863e-02
 5.12460e-02
 4.88057e-02
 4.63654e-02
 4.39251e-02
 4.14848e-02
 3.90445e-02
 3.66043e-02
 3.41640e-02
 3.17237e-02
 2.92834e-02
 2.68431e-02
 2.44028e-02
 2.19626e-02
 1.95223e-02
 1.70820e-02
 1.46417e-02
 1.22014e-02
 9.76113e-03
 7.32085e-03
 4.88057e-03
 2.44028e-03
 1.00000e-60
)


51
(
 2.32882e-01
 1.96736e-01
 1.63934e-01
 1.43286e-01
 1.43153e-01
 1.49087e-01
 1.13221e-01
 1.05981e-01
 1.03849e-01
 1.02262e-01
 9.63995e-02
 9.31641e-02
 8.98401e-02
 8.62450e-02
 8.38590e-02
 8.15295e-02
 7.92000e-02
 7.68707e-02
 7.45413e-02
 7.22119e-02
 6.98825e-02
 6.75531e-02
 6.52237e-02
 6.28942e-02
 6.05648e-02
 5.82354e-02
 5.59060e-02
 5.35766e-02
 5.12472e-02
 4.89177e-02
 4.65883e-02
 4.42589e-02
 4.19295e-02
 3.96001e-02
 3.72707e-02
 3.49412e-02
 3.26118e-02
 3.02824e-02
 2.79530e-02
 2.56236e-02
 2.32942e-02
 2.09647e-02
 1.86353e-02
 1.63059e-02
 1.39765e-02
 1.16471e-02
 9.31766e-03
 6.98824e-03
 4.65883e-03
 2.32941e-03
 1.00000e-60
)


51
(
 2.32882e-01
 1.95018e-01
 1.60213e-01
 1.38376e-01
 1.38443e-01
 1.45011e-01
 1.09039e-01
 9.69989e-02
 9.45700e-02
 9.24253e-02
 8.94306e-02
 8.70140e-02
 8.48229e-02
 8.21037e-02
 7.98677e-02
 7.76491e-02
 7.54305e-02
 7.32120e-02
 7.09935e-02
 6.87750e-02
 6.65564e-02
 6.43379e-02
 6.21194e-02
 5.99008e-02
 5.76823e-02
 5.54637e-02
 5.32452e-02
 5.10266e-02
 4.88081e-02
 4.65895e-02
 4.43710e-02
 4.21524e-02
 3.99339e-02
 3.77153e-02
 3.54968e-02
 3.32782e-02
 3.10597e-02
 2.88411e-02
 2.66226e-02
 2.44040e-02
 2.21855e-02
 1.99669e-02
 1.77484e-02
 1.55298e-02
 1.33113e-02
 1.10927e-02
 8.87419e-03
 6.65564e-03
 4.43709e-03
 2.21855e-03
 1.00000e-60
)


51
(
 2.32882e-01
 1.93260e-01
 1.56640e-01
 1.33613e-01
 1.33851e-01
 1.40949e-01
 9.62968e-02
 9.69486e-02
 9.54735e-02
 9.20320e-02
 8.60951e-02
 8.39331e-02
 8.17786e-02
 7.96264e-02
 7.74747e-02
 7.39151e-02
 7.28498e-02
 7.09186e-02
 6.88682e-02
 6.67163e-02
 6.45644e-02
 6.24125e-02
 6.02605e-02
 5.81084e-02
 5.59564e-02
 5.38043e-02
 5.16522e-02
 4.95001e-02
 4.73480e-02
 4.51958e-02
 4.30437e-02
 4.08915e-02
 3.87393e-02
 3.65872e-02
 3.44350e-02
 3.22828e-02
 3.01307e-02
 2.79785e-02
 2.58263e-02
 2.36741e-02
 2.15219e-02
 1.93697e-02
 1.72176e-02
 1.50654e-02
 1.29132e-02
 1.07610e-02
 8.60878e-03
 6.45659e-03
 4.30439e-03
 2.15220e-03
 1.00000e-60
)


51
(
 2.32882e-01
 1.91465e-01
 1.53247e-01
 1.29034e-01
 1.29407e-01
 1.36915e-01
 9.65440e-02
 9.23146e-02
 9.00398e-02
 8.78448e-02
 8.56793e-02
 8.35259e-02
 8.11448e-02
 7.82346e-02
 7.70882e-02
 7.26449e-02
 7.11106e-02
 6.91351e-02
 6.70720e-02
 6.49846e-02
 6.28902e-02
 6.07940e-02
 5.86975e-02
 5.66011e-02
 5.45047e-02
 5.24083e-02
 5.03120e-02
 4.82157e-02
 4.61194e-02
 4.40231e-02
 4.19268e-02
 3.98304e-02
 3.77341e-02
 3.56378e-02
 3.35415e-02
 3.14451e-02
 2.93488e-02
 2.72524e-02
 2.51561e-02
 2.30598e-02
 2.09634e-02
 1.88671e-02
 1.67707e-02
 1.46744e-02
 1.25781e-02
 1.04817e-02
 8.38538e-03
 6.28904e-03
 4.19269e-03
 2.09635e-03
 1.00000e-60
)


51
(
 2.32882e-01
 1.89649e-01
 1.49892e-01
 1.24507e-01
 1.24897e-01
 1.32716e-01
 9.02073e-02
 8.87317e-02
 8.64322e-02
 8.41718e-02
 8.19900e-02
 7.99693e-02
 7.77729e-02
 7.56987e-02
 7.36354e-02
 6.96207e-02
 6.95259e-02
 6.74756e-02
 6.54270e-02
 6.33795e-02
 6.13328e-02
 5.92866e-02
 5.72409e-02
 5.51955e-02
 5.31504e-02
 5.11054e-02
 4.90606e-02
 4.70160e-02
 4.49714e-02
 4.29269e-02
 4.08825e-02
 3.88381e-02
 3.67938e-02
 3.47496e-02
 3.27054e-02
 3.06612e-02
 2.86170e-02
 2.65729e-02
 2.45288e-02
 2.24847e-02
 2.04406e-02
 1.83965e-02
 1.63524e-02
 1.43083e-02
 1.22643e-02
 1.02202e-02
 8.17617e-03
 6.13212e-03
 4.08808e-03
 2.04404e-03
 1.00000e-60
)


51
(
 2.32882e-01
 1.87833e-01
 1.46241e-01
 1.19706e-01
 1.19841e-01
 1.27938e-01
 8.29855e-02
 8.93849e-02
 7.92486e-02
 7.66218e-02
 7.45996e-02
 7.26584e-02
 7.10727e-02
 6.88683e-02
 7.05413e-02
 6.50424e-02
 6.26620e-02
 6.06829e-02
 5.87967e-02
 5.69413e-02
 5.50974e-02
 5.32580e-02
 5.14203e-02
 4.95833e-02
 4.77466e-02
 4.59100e-02
 4.40734e-02
 4.22370e-02
 4.04005e-02
 3.85641e-02
 3.67276e-02
 3.48912e-02
 3.30548e-02
 3.12184e-02
 2.93820e-02
 2.75456e-02
 2.57092e-02
 2.38728e-02
 2.20364e-02
 2.02001e-02
 1.83637e-02
 1.65273e-02
 1.46909e-02
 1.28546e-02
 1.10182e-02
 9.18184e-03
 7.34547e-03
 5.50910e-03
 3.67273e-03
 1.83636e-03
 1.00000e-60
)


51
(
 2.32882e-01
 1.85986e-01
 1.42322e-01
 1.14650e-01
 1.14287e-01
 1.22629e-01
 7.63021e-02
 7.84716e-02
 7.93660e-02
 8.12167e-02
 7.89761e-02
 7.52327e-02
 7.46085e-02
 7.19209e-02
 7.05739e-02
 6.81818e-02
 6.62606e-02
 6.43263e-02
 6.23851e-02
 6.04404e-02
 5.84936e-02
 5.65457e-02
 5.45972e-02
 5.26481e-02
 5.06989e-02
 4.87494e-02
 4.67998e-02
 4.48502e-02
 4.29004e-02
 4.09506e-02
 3.90007e-02
 3.70509e-02
 3.51009e-02
 3.31510e-02
 3.12010e-02
 2.92510e-02
 2.73010e-02
 2.53509e-02
 2.34009e-02
 2.14509e-02
 1.95008e-02
 1.75507e-02
 1.56006e-02
 1.36506e-02
 1.17005e-02
 9.75040e-03
 7.80034e-03
 5.85026e-03
 3.90018e-03
 1.95009e-03
 1.00000e-60
)


51
(
 2.32882e-01
 1.84133e-01
 1.38174e-01
 1.09370e-01
 1.08301e-01
 1.16851e-01
 7.20986e-02
 6.98922e-02
 6.80849e-02
 6.64060e-02
 7.32665e-02
 7.23146e-02
 7.14111e-02
 6.94524e-02
 6.77583e-02
 6.58617e-02
 6.39701e-02
 6.20828e-02
 6.01981e-02
 5.83150e-02
 5.64328e-02
 5.45512e-02
 5.26698e-02
 5.07886e-02
 4.89075e-02
 4.70264e-02
 4.51454e-02
 4.32644e-02
 4.13833e-02
 3.95023e-02
 3.76212e-02
 3.57402e-02
 3.38591e-02
 3.19781e-02
 3.00970e-02
 2.82160e-02
 2.63349e-02
 2.44539e-02
 2.25728e-02
 2.06917e-02
 1.88107e-02
 1.69296e-02
 1.50486e-02
 1.31675e-02
 1.12864e-02
 9.40534e-03
 7.52428e-03
 5.64321e-03
 3.76214e-03
 1.88107e-03
 1.00000e-60
)


51
(
 2.32882e-01
 1.82279e-01
 1.33836e-01
 1.03894e-01
 1.01950e-01
 1.10669e-01
 6.79679e-02
 6.58371e-02
 6.41185e-02
 6.25323e-02
 6.44642e-02
 6.32048e-02
 6.20122e-02
 6.06298e-02
 5.88844e-02
 5.73788e-02
 5.57968e-02
 5.41790e-02
 5.25461e-02
 5.09073e-02
 4.92663e-02
 4.76246e-02
 4.59826e-02
 4.43405e-02
 4.26984e-02
 4.10563e-02
 3.94141e-02
 3.77719e-02
 3.61297e-02
 3.44875e-02
 3.28453e-02
 3.12031e-02
 2.95608e-02
 2.79186e-02
 2.62764e-02
 2.46341e-02
 2.29918e-02
 2.13496e-02
 1.97073e-02
 1.80650e-02
 1.64228e-02
 1.47805e-02
 1.31382e-02
 1.14960e-02
 9.85367e-03
 8.21139e-03
 6.56912e-03
 4.92684e-03
 3.28456e-03
 1.64228e-03
 1.00000e-60
)


51
(
 2.32882e-01
 1.80426e-01
 1.29348e-01
 9.82542e-02
 9.52989e-02
 1.04146e-01
 6.38514e-02
 6.18156e-02
 6.01911e-02
 5.86987e-02
 5.72475e-02
 5.58097e-02
 5.43765e-02
 5.29447e-02
 5.15136e-02
 5.00826e-02
 4.86518e-02
 4.72209e-02
 4.57900e-02
 4.43591e-02
 4.29282e-02
 4.14973e-02
 4.00664e-02
 3.86355e-02
 3.72046e-02
 3.57736e-02
 3.43427e-02
 3.29118e-02
 3.14808e-02
 3.00499e-02
 2.86189e-02
 2.71880e-02
 2.57570e-02
 2.43261e-02
 2.28951e-02
 2.14642e-02
 2.00333e-02
 1.86023e-02
 1.71714e-02
 1.57404e-02
 1.43095e-02
 1.28785e-02
 1.14476e-02
 1.00166e-02
 8.58568e-03
 7.15474e-03
 5.72379e-03
 4.29285e-03
 2.86190e-03
 1.43095e-03
 1.00000e-60
)


51
(
 2.32882e-01
 1.78587e-01
 1.24750e-01
 9.24801e-02
 8.84154e-02
 9.73455e-02
 5.98585e-02
 5.78975e-02
 5.63593e-02
 5.49567e-02
 5.35964e-02
 5.22498e-02
 5.09079e-02
 4.95674e-02
 4.82276e-02
 4.68879e-02
 4.55483e-02
 4.42087e-02
 4.28691e-02
 4.15295e-02
 4.01899e-02
 3.88503e-02
 3.75106e-02
 3.61710e-02
 3.48313e-02
 3.34917e-02
 3.21520e-02
 3.08124e-02
 2.94727e-02
 2.81330e-02
 2.67934e-02
 2.54537e-02
 2.41140e-02
 2.27744e-02
 2.14347e-02
 2.00950e-02
 1.87554e-02
 1.74157e-02
 1.60760e-02
 1.47364e-02
 1.33967e-02
 1.20570e-02
 1.07174e-02
 9.37769e-03
 8.03802e-03
 6.69835e-03
 5.35868e-03
 4.01901e-03
 2.67934e-03
 1.33967e-03
 1.00000e-60
)


51
(
 2.32882e-01
 1.76752e-01
 1.20081e-01
 8.66022e-02
 8.13654e-02
 9.03305e-02
 5.58656e-02
 5.39793e-02
 5.25319e-02
 5.12205e-02
 4.99515e-02
 4.86960e-02
 4.74452e-02
 4.61959e-02
 4.49471e-02
 4.36985e-02
 4.24500e-02
 4.12016e-02
 3.99531e-02
 3.87046e-02
 3.74561e-02
 3.62076e-02
 3.49591e-02
 3.37106e-02
 3.24621e-02
 3.12136e-02
 2.99650e-02
 2.87165e-02
 2.74679e-02
 2.62194e-02
 2.49709e-02
 2.37223e-02
 2.24738e-02
 2.12252e-02
 1.99767e-02
 1.87281e-02
 1.74796e-02
 1.62311e-02
 1.49825e-02
 1.37340e-02
 1.24854e-02
 1.12369e-02
 9.98834e-03
 8.73980e-03
 7.49126e-03
 6.24272e-03
 4.99418e-03
 3.74563e-03
 2.49709e-03
 1.24854e-03
 1.00000e-60
)


51
(
 2.32882e-01
 1.74916e-01
 1.15380e-01
 8.06507e-02
 7.42151e-02
 8.31648e-02
 5.19657e-02
 5.01703e-02
 4.88081e-02
 4.75844e-02
 4.64038e-02
 4.52371e-02
 4.40749e-02
 4.29143e-02
 4.17543e-02
 4.05944e-02
 3.94346e-02
 3.82748e-02
 3.71150e-02
 3.59552e-02
 3.47954e-02
 3.36356e-02
 3.24758e-02
 3.13160e-02
 3.01562e-02
 2.89963e-02
 2.78365e-02
 2.66766e-02
 2.55168e-02
 2.43569e-02
 2.31971e-02
 2.20372e-02
 2.08774e-02
 1.97175e-02
 1.85577e-02
 1.73978e-02
 1.62379e-02
 1.50781e-02
 1.39182e-02
 1.27584e-02
 1.15985e-02
 1.04387e-02
 9.27883e-03
 8.11898e-03
 6.95913e-03
 5.79927e-03
 4.63942e-03
 3.47956e-03
 2.31971e-03
 1.15985e-03
 1.00000e-60
)


51
(
 2.32882e-01
 1.73130e-01
 1.10687e-01
 7.46559e-02
 6.70309e-02
 7.59117e-02
 4.81101e-02
 4.64009e-02
 4.51263e-02
 4.39905e-02
 4.28977e-02
 4.18187e-02
 4.07443e-02
 3.96713e-02
 3.85989e-02
 3.75267e-02
 3.64545e-02
 3.53824e-02
 3.43102e-02
 3.32381e-02
 3.21659e-02
 3.10938e-02
 3.00216e-02
 2.89494e-02
 2.78772e-02
 2.68050e-02
 2.57328e-02
 2.46606e-02
 2.35884e-02
 2.25162e-02
 2.14440e-02
 2.03718e-02
 1.92996e-02
 1.82274e-02
 1.71552e-02
 1.60830e-02
 1.50108e-02
 1.39386e-02
 1.28664e-02
 1.17942e-02
 1.07220e-02
 9.64982e-03
 8.57762e-03
 7.50541e-03
 6.43321e-03
 5.36101e-03
 4.28881e-03
 3.21661e-03
 2.14441e-03
 1.07220e-03
 1.00000e-60
)


51
(
 2.32882e-01
 1.71347e-01
 1.06042e-01
 6.86481e-02
 5.98791e-02
 6.86346e-02
 4.43192e-02
 4.26965e-02
 4.15088e-02
 4.04596e-02
 3.94532e-02
 3.84604e-02
 3.74722e-02
 3.64853e-02
 3.54990e-02
 3.45129e-02
 3.35269e-02
 3.25408e-02
 3.15548e-02
 3.05687e-02
 2.95827e-02
 2.85966e-02
 2.76105e-02
 2.66245e-02
 2.56384e-02
 2.46523e-02
 2.36662e-02
 2.26801e-02
 2.16940e-02
 2.07079e-02
 1.97218e-02
 1.87358e-02
 1.77497e-02
 1.67636e-02
 1.57775e-02
 1.47914e-02
 1.38053e-02
 1.28192e-02
 1.18331e-02
 1.08470e-02
 9.86092e-03
 8.87483e-03
 7.88874e-03
 6.90265e-03
 5.91655e-03
 4.93046e-03
 3.94437e-03
 2.95828e-03
 1.97219e-03
 9.86094e-04
 1.00000e-60
)


51
(
 2.32882e-01
 1.69565e-01
 1.01484e-01
 6.26576e-02
 5.28260e-02
 6.13970e-02
 4.05889e-02
 3.90412e-02
 3.79360e-02
 3.69715e-02
 3.60503e-02
 3.51427e-02
 3.42396e-02
 3.33379e-02
 3.24367e-02
 3.15356e-02
 3.06347e-02
 2.97337e-02
 2.88327e-02
 2.79317e-02
 2.70307e-02
 2.61297e-02
 2.52287e-02
 2.43277e-02
 2.34267e-02
 2.25257e-02
 2.16247e-02
 2.07236e-02
 1.98226e-02
 1.89216e-02
 1.80205e-02
 1.71195e-02
 1.62185e-02
 1.53175e-02
 1.44164e-02
 1.35154e-02
 1.26144e-02
 1.17133e-02
 1.08123e-02
 9.91130e-03
 9.01027e-03
 8.10924e-03
 7.20822e-03
 6.30720e-03
 5.40616e-03
 4.50513e-03
 3.60411e-03
 2.70308e-03
 1.80206e-03
 9.01028e-04
 1.00000e-60
)


51
(
 2.32882e-01
 1.67861e-01
 9.70521e-02
 5.67146e-02
 4.59380e-02
 5.42623e-02
 3.69144e-02
 3.54545e-02
 3.44348e-02
 3.35547e-02
 3.27173e-02
 3.18933e-02
 3.10736e-02
 3.02553e-02
 2.94374e-02
 2.86197e-02
 2.78020e-02
 2.69843e-02
 2.61667e-02
 2.53490e-02
 2.45313e-02
 2.37136e-02
 2.28959e-02
 2.20782e-02
 2.12605e-02
 2.04428e-02
 1.96251e-02
 1.88074e-02
 1.79897e-02
 1.71720e-02
 1.63542e-02
 1.55365e-02
 1.47188e-02
 1.39011e-02
 1.30834e-02
 1.22657e-02
 1.14480e-02
 1.06302e-02
 9.81254e-03
 8.99483e-03
 8.17712e-03
 7.35940e-03
 6.54169e-03
 5.72398e-03
 4.90627e-03
 4.08856e-03
 3.27085e-03
 2.45314e-03
 1.63542e-03
 8.17712e-04
 1.00000e-60
)


51
(
 2.32882e-01
 1.66162e-01
 9.27867e-02
 5.08496e-02
 3.92813e-02
 4.72939e-02
 3.33725e-02
 3.20221e-02
 3.10921e-02
 3.02950e-02
 2.95383e-02
 2.87942e-02
 2.80542e-02
 2.73153e-02
 2.65769e-02
 2.58386e-02
 2.51004e-02
 2.43621e-02
 2.36239e-02
 2.28857e-02
 2.21474e-02
 2.14092e-02
 2.06709e-02
 1.99327e-02
 1.91944e-02
 1.84562e-02
 1.77179e-02
 1.69797e-02
 1.62414e-02
 1.55032e-02
 1.47649e-02
 1.40267e-02
 1.32884e-02
 1.25502e-02
 1.18119e-02
 1.10737e-02
 1.03354e-02
 9.59719e-03
 8.85895e-03
 8.12070e-03
 7.38245e-03
 6.64420e-03
 5.90596e-03
 5.16771e-03
 4.42947e-03
 3.69123e-03
 2.95298e-03
 2.21474e-03
 1.47649e-03
 7.38246e-04
 1.00000e-60
)


51
(
 2.32882e-01
 1.64463e-01
 8.87269e-02
 4.50926e-02
 3.29223e-02
 4.05553e-02
 2.99141e-02
 2.86278e-02
 2.77740e-02
 2.70557e-02
 2.63784e-02
 2.57137e-02
 2.50529e-02
 2.43932e-02
 2.37339e-02
 2.30746e-02
 2.24153e-02
 2.17561e-02
 2.10968e-02
 2.04376e-02
 1.97783e-02
 1.91190e-02
 1.84597e-02
 1.78005e-02
 1.71412e-02
 1.64819e-02
 1.58226e-02
 1.51633e-02
 1.45041e-02
 1.38448e-02
 1.31855e-02
 1.25262e-02
 1.18669e-02
 1.12077e-02
 1.05484e-02
 9.88911e-03
 9.22983e-03
 8.57056e-03
 7.91129e-03
 7.25201e-03
 6.59274e-03
 5.93347e-03
 5.27419e-03
 4.61492e-03
 3.95564e-03
 3.29637e-03
 2.63710e-03
 1.97782e-03
 1.31855e-03
 6.59275e-04
 1.00000e-60
)


51
(
 2.32882e-01
 1.62824e-01
 8.49123e-02
 3.94741e-02
 2.69273e-02
 3.41100e-02
 2.64273e-02
 2.52305e-02
 2.44603e-02
 2.38229e-02
 2.32253e-02
 2.26399e-02
 2.20581e-02
 2.14773e-02
 2.08968e-02
 2.03163e-02
 1.97359e-02
 1.91554e-02
 1.85750e-02
 1.79945e-02
 1.74140e-02
 1.68336e-02
 1.62531e-02
 1.56726e-02
 1.50922e-02
 1.45117e-02
 1.39312e-02
 1.33507e-02
 1.27703e-02
 1.21898e-02
 1.16093e-02
 1.10289e-02
 1.04484e-02
 9.86791e-03
 9.28744e-03
 8.70697e-03
 8.12650e-03
 7.54604e-03
 6.96557e-03
 6.38511e-03
 5.80464e-03
 5.22418e-03
 4.64372e-03
 4.06325e-03
 3.48278e-03
 2.90232e-03
 2.32186e-03
 1.74139e-03
 1.16093e-03
 5.80465e-04
 1.00000e-60
)


51
(
 2.32882e-01
 1.61203e-01
 8.13824e-02
 3.40242e-02
 2.13626e-02
 2.80212e-02
 2.30019e-02
 2.18935e-02
 2.12047e-02
 2.06466e-02
 2.01275e-02
 1.96199e-02
 1.91158e-02
 1.86125e-02
 1.81095e-02
 1.76065e-02
 1.71035e-02
 1.66005e-02
 1.60975e-02
 1.55944e-02
 1.50914e-02
 1.45883e-02
 1.40853e-02
 1.35822e-02
 1.30792e-02
 1.25761e-02
 1.20731e-02
 1.15700e-02
 1.10670e-02
 1.05639e-02
 1.00609e-02
 9.55782e-03
 9.05477e-03
 8.55172e-03
 8.04868e-03
 7.54563e-03
 7.04258e-03
 6.53954e-03
 6.03650e-03
 5.53345e-03
 5.03041e-03
 4.52737e-03
 4.02433e-03
 3.52129e-03
 3.01825e-03
 2.51520e-03
 2.01216e-03
 1.50912e-03
 1.00608e-03
 5.03042e-04
 1.00000e-60
)


51
(
 2.32882e-01
 1.59583e-01
 7.81766e-02
 2.87734e-02
 1.62945e-02
 2.23525e-02
 1.96404e-02
 1.86189e-02
 1.80119e-02
 1.75322e-02
 1.70900e-02
 1.66589e-02
 1.62309e-02
 1.58037e-02
 1.53766e-02
 1.49496e-02
 1.45225e-02
 1.40954e-02
 1.36683e-02
 1.32412e-02
 1.28140e-02
 1.23869e-02
 1.19597e-02
 1.15326e-02
 1.11055e-02
 1.06783e-02
 1.02512e-02
 9.82404e-03
 9.39689e-03
 8.96975e-03
 8.54261e-03
 8.11548e-03
 7.68834e-03
 7.26120e-03
 6.83407e-03
 6.40693e-03
 5.97980e-03
 5.55267e-03
 5.12554e-03
 4.69841e-03
 4.27129e-03
 3.84416e-03
 3.41703e-03
 2.98990e-03
 2.56277e-03
 2.13564e-03
 1.70851e-03
 1.28139e-03
 8.54257e-04
 4.27129e-04
 1.00000e-60
)


51
(
 2.32882e-01
 1.57644e-01
 7.53347e-02
 2.37518e-02
 1.17894e-02
 1.71673e-02
 1.63419e-02
 1.54133e-02
 1.48868e-02
 1.44840e-02
 1.41172e-02
 1.37609e-02
 1.34075e-02
 1.30547e-02
 1.27020e-02
 1.23493e-02
 1.19966e-02
 1.16438e-02
 1.12909e-02
 1.09381e-02
 1.05853e-02
 1.02324e-02
 9.87956e-03