/*--------------------------------*- C++ -*----------------------------------*\
| =========                 |                                                 |
| \      /  F ield          | OpenFOAM: The Open Source CFD Toolbox           |
|  \    /   O peration      | Version:  7                                     |
|   \  /    A nd            | Web:      http://www.OpenFOAM.com               |
|    \/     M anipulation   |                                                 |
\*---------------------------------------------------------------------------*/
FoamFile 
{   version     2.0;
    format      ascii;
    class       dictionary;
    location    "constant";
    object      LDMtable;
}
// * * * * * * * * * * * * * * * * * * * * * * * * * * * * * * * * * * * * * //

OH_table
51
(

51
(
 1.00000e-60
 1.24517e-31
 6.26779e-23
 7.70371e-24
 1.24975e-22
 2.26088e-19
 9.22876e-31
 1.36068e-30
 2.16719e-30
 3.56267e-30
 5.04223e-30
 6.79856e-30
 6.21954e-30
 5.72568e-30
 4.94132e-30
 3.93795e-30
 3.14440e-30
 2.44962e-30
 2.03576e-30
 1.56938e-30
 1.20929e-30
 9.60212e-31
 8.45984e-31
 3.94223e-31
 1.53073e-31
 1.77065e-31
 1.94388e-31
 1.68414e-31
 2.88284e-32
 1.00000e-60
 7.16045e-32
 2.35477e-31
 2.93548e-31
 2.81020e-31
 2.96103e-31
 6.94837e-31
 1.04729e-30
 1.12882e-30
 1.04345e-30
 8.19950e-31
 5.83814e-31
 3.89160e-31
 3.66199e-32
 6.88200e-33
 2.94630e-33
 2.09402e-34
 1.00000e-60
 1.00000e-60
 1.00000e-60
 8.69323e-34
 1.00000e-60
)


51
(
 1.00000e-60
 5.96460e-21
 1.00213e-08
 3.24201e-08
 5.65324e-10
 4.69334e-11
 4.42992e-14
 3.50353e-13
 2.00004e-12
 8.81274e-12
 2.95077e-11
 7.64716e-11
 1.31604e-10
 1.50403e-10
 1.52570e-11
 1.15333e-11
 9.03121e-12
 7.28532e-12
 6.02129e-12
 5.07611e-12
 4.34890e-12
 3.77509e-12
 3.31540e-12
 2.94095e-12
 2.62615e-12
 2.36162e-12
 2.13458e-12
 1.93822e-12
 1.76643e-12
 1.61592e-12
 1.48118e-12
 1.36198e-12
 1.25422e-12
 1.15587e-12
 1.06602e-12
 9.83200e-13
 9.05637e-13
 8.32321e-13
 7.62301e-13
 6.94663e-13
 6.28521e-13
 5.63018e-13
 4.97356e-13
 4.30875e-13
 3.63175e-13
 2.93139e-13
 2.22046e-13
 1.51114e-13
 8.44607e-14
 3.56585e-14
 1.00000e-60
)


51
(
 1.00000e-60
 1.19292e-20
 1.04949e-07
 3.39550e-07
 5.91799e-09
 4.91802e-10
 8.85984e-14
 7.00706e-13
 4.00007e-12
 1.76255e-11
 5.90155e-11
 1.52943e-10
 2.63208e-10
 3.00807e-10
 3.05140e-11
 2.30667e-11
 1.80624e-11
 1.45706e-11
 1.20426e-11
 1.01522e-11
 8.69779e-12
 7.55018e-12
 6.63080e-12
 5.88191e-12
 5.25231e-12
 4.72323e-12
 4.26916e-12
 3.87644e-12
 3.53286e-12
 3.23185e-12
 2.96236e-12
 2.72397e-12
 2.50843e-12
 2.31174e-12
 2.13204e-12
 1.96640e-12
 1.81127e-12
 1.66464e-12
 1.52460e-12
 1.38933e-12
 1.25704e-12
 1.12604e-12
 9.94711e-13
 8.61751e-13
 7.26350e-13
 5.86277e-13
 4.44091e-13
 3.02228e-13
 1.68921e-13
 7.13171e-14
 1.00000e-60
)


51
(
 1.00000e-60
 1.78938e-20
 2.99274e-07
 9.68352e-07
 1.68690e-08
 1.40354e-09
 1.32898e-13
 1.05106e-12
 6.00011e-12
 2.64382e-11
 8.85232e-11
 2.29415e-10
 3.94812e-10
 4.51210e-10
 4.57710e-11
 3.46000e-11
 2.70936e-11
 2.18560e-11
 1.80639e-11
 1.52283e-11
 1.30467e-11
 1.13253e-11
 9.94620e-12
 8.82286e-12
 7.87846e-12
 7.08485e-12
 6.40374e-12
 5.81467e-12
 5.29930e-12
 4.84777e-12
 4.44354e-12
 4.08595e-12
 3.76265e-12
 3.46761e-12
 3.19806e-12
 2.94960e-12
 2.71691e-12
 2.49696e-12
 2.28690e-12
 2.08399e-12
 1.88556e-12
 1.68905e-12
 1.49207e-12
 1.29263e-12
 1.08953e-12
 8.79416e-13
 6.66137e-13
 4.53342e-13
 2.53382e-13
 1.06976e-13
 1.00000e-60
)


51
(
 1.00000e-60
 2.38584e-20
 5.91989e-07
 1.91565e-06
 3.33548e-08
 2.77859e-09
 1.77197e-13
 1.40141e-12
 8.00014e-12
 3.52510e-11
 1.18031e-10
 3.05886e-10
 5.26416e-10
 6.01614e-10
 6.10280e-11
 4.61333e-11
 3.61248e-11
 2.91413e-11
 2.40851e-11
 2.03044e-11
 1.73956e-11
 1.51004e-11
 1.32616e-11
 1.17638e-11
 1.05046e-11
 9.44646e-12
 8.53832e-12
 7.75289e-12
 7.06573e-12
 6.46369e-12
 5.92472e-12
 5.44794e-12
 5.01686e-12
 4.62348e-12
 4.26408e-12
 3.93280e-12
 3.62255e-12
 3.32928e-12
 3.04920e-12
 2.77865e-12
 2.51408e-12
 2.25207e-12
 1.98942e-12
 1.72350e-12
 1.45270e-12
 1.17255e-12
 8.88182e-13
 6.04457e-13
 3.37843e-13
 1.42634e-13
 1.00000e-60
)


51
(
 1.00000e-60
 1.48794e-19
 9.82087e-07
 3.17828e-06
 5.53117e-08
 4.61338e-09
 2.21496e-13
 1.75177e-12
 1.00002e-11
 4.40637e-11
 1.47539e-10
 3.82358e-10
 6.58020e-10
 7.52017e-10
 7.62850e-11
 5.76666e-11
 4.51560e-11
 3.64266e-11
 3.01064e-11
 2.53806e-11
 2.17445e-11
 1.88755e-11
 1.65770e-11
 1.47048e-11
 1.31308e-11
 1.18081e-11
 1.06729e-11
 9.69111e-12
 8.83216e-12
 8.07962e-12
 7.40590e-12
 6.80992e-12
 6.27108e-12
 5.77935e-12
 5.33010e-12
 4.91600e-12
 4.52818e-12
 4.16161e-12
 3.81150e-12
 3.47331e-12
 3.14260e-12
 2.81509e-12
 2.48678e-12
 2.15438e-12
 1.81588e-12
 1.46569e-12
 1.11023e-12
 7.55571e-13
 4.22303e-13
 1.78293e-13
 1.00000e-60
)


51
(
 1.00000e-60
 1.95695e-18
 1.46856e-06
 4.75306e-06
 8.26760e-08
 6.90435e-09
 2.65795e-13
 2.10212e-12
 1.20002e-11
 5.28764e-11
 1.77046e-10
 4.58830e-10
 7.89624e-10
 9.02420e-10
 9.15420e-11
 6.92000e-11
 5.41872e-11
 4.37119e-11
 3.61277e-11
 3.04567e-11
 2.60934e-11
 2.26505e-11
 1.98924e-11
 1.76457e-11
 1.57569e-11
 1.41697e-11
 1.28075e-11
 1.16293e-11
 1.05986e-11
 9.69554e-12
 8.88709e-12
 8.17190e-12
 7.52529e-12
 6.93523e-12
 6.39612e-12
 5.89920e-12
 5.43382e-12
 4.99393e-12
 4.57381e-12
 4.16798e-12
 3.77112e-12
 3.37811e-12
 2.98413e-12
 2.58525e-12
 2.17905e-12
 1.75883e-12
 1.33227e-12
 9.06685e-13
 5.06764e-13
 2.13951e-13
 1.00000e-60
)


51
(
 1.00000e-60
 9.72587e-18
 2.05041e-06
 6.63682e-06
 1.15384e-07
 9.64794e-09
 3.10094e-13
 2.45247e-12
 1.40002e-11
 6.16892e-11
 2.06554e-10
 5.35301e-10
 9.21228e-10
 1.05282e-09
 1.06799e-10
 8.07333e-11
 6.32184e-11
 5.09972e-11
 4.21490e-11
 3.55328e-11
 3.04423e-11
 2.64256e-11
 2.32078e-11
 2.05867e-11
 1.83831e-11
 1.65313e-11
 1.49421e-11
 1.35676e-11
 1.23650e-11
 1.13115e-11
 1.03683e-11
 9.53389e-12
 8.77951e-12
 8.09110e-12
 7.46214e-12
 6.88240e-12
 6.33946e-12
 5.82625e-12
 5.33611e-12
 4.86264e-12
 4.39964e-12
 3.94113e-12
 3.48149e-12
 3.01613e-12
 2.54223e-12
 2.05197e-12
 1.55432e-12
 1.05780e-12
 5.91225e-13
 2.49610e-13
 1.00000e-60
)


51
(
 1.00000e-60
 4.39795e-17
 2.72661e-06
 8.82638e-06
 1.53373e-07
 1.28406e-08
 3.54394e-13
 2.80282e-12
 1.60003e-11
 7.05019e-11
 2.36062e-10
 6.11773e-10
 1.05283e-09
 1.20323e-09
 1.22056e-10
 9.22666e-11
 7.22496e-11
 5.82826e-11
 4.81703e-11
 4.06089e-11
 3.47912e-11
 3.02007e-11
 2.65232e-11
 2.35276e-11
 2.10092e-11
 1.88929e-11
 1.70766e-11
 1.55058e-11
 1.41315e-11
 1.29274e-11
 1.18494e-11
 1.08959e-11
 1.00337e-11
 9.24697e-12
 8.52817e-12
 7.86560e-12
 7.24509e-12
 6.65857e-12
 6.09841e-12
 5.55730e-12
 5.02816e-12
 4.50415e-12
 3.97884e-12
 3.44700e-12
 2.90540e-12
 2.34511e-12
 1.77636e-12
 1.20891e-12
 6.75685e-13
 2.85268e-13
 1.00000e-60
)


51
(
 1.00000e-60
 1.75908e-16
 3.49617e-06
 1.13186e-05
 1.96577e-07
 1.64787e-08
 5.25594e-13
 3.15318e-12
 1.80003e-11
 7.93147e-11
 2.65570e-10
 6.88244e-10
 1.18444e-09
 1.35363e-09
 1.37313e-10
 1.03800e-10
 8.12809e-11
 6.55679e-11
 5.41916e-11
 4.56850e-11
 3.91401e-11
 3.39758e-11
 2.98386e-11
 2.64686e-11
 2.36354e-11
 2.12545e-11
 1.92112e-11
 1.74440e-11
 1.58979e-11
 1.45433e-11
 1.33306e-11
 1.22579e-11
 1.12879e-11
 1.04028e-11
 9.59419e-12
 8.84880e-12
 8.15073e-12
 7.49089e-12
 6.86071e-12
 6.25196e-12
 5.65668e-12
 5.06716e-12
 4.47620e-12
 3.87788e-12
 3.26858e-12
 2.63825e-12
 1.99841e-12
 1.36003e-12
 7.60146e-13
 3.20927e-13
 1.00000e-60
)


51
(
 1.00000e-60
 4.40850e-16
 4.35808e-06
 1.41102e-05
 2.44935e-07
 2.05588e-08
 1.84317e-12
 3.50353e-12
 2.00004e-11
 8.81274e-11
 2.95077e-10
 7.64716e-10
 1.31604e-09
 1.50403e-09
 1.52570e-10
 1.15333e-10
 9.03121e-11
 7.28532e-11
 6.02129e-11
 5.07611e-11
 4.34890e-11
 3.77509e-11
 3.31540e-11
 2.94095e-11
 2.62615e-11
 2.36162e-11
 2.13458e-11
 1.93822e-11
 1.76643e-11
 1.61592e-11
 1.48118e-11
 1.36198e-11
 1.25422e-11
 1.15587e-11
 1.06602e-11
 9.83200e-12
 9.05637e-12
 8.32321e-12
 7.62301e-12
 6.94663e-12
 6.28521e-12
 5.63018e-12
 4.97356e-12
 4.30875e-12
 3.63175e-12
 2.93139e-12
 2.22046e-12
 1.51114e-12
 8.44607e-13
 3.56585e-13
 1.00000e-60
)


51
(
 1.00000e-60
 1.41753e-15
 5.31133e-06
 1.71982e-05
 2.98383e-07
 2.50772e-08
 6.67761e-12
 6.88883e-12
 2.20004e-11
 9.69402e-11
 3.24585e-10
 8.41188e-10
 1.44764e-09
 1.65444e-09
 1.67827e-10
 1.26867e-10
 9.93433e-11
 8.01385e-11
 6.62342e-11
 5.58372e-11
 4.78379e-11
 4.15260e-11
 3.64694e-11
 3.23505e-11
 2.88877e-11
 2.59778e-11
 2.34804e-11
 2.13204e-11
 1.94307e-11
 1.77752e-11
 1.62930e-11
 1.49818e-11
 1.37964e-11
 1.27146e-11
 1.17262e-11
 1.08152e-11
 9.96200e-12
 9.15553e-12
 8.38531e-12
 7.64129e-12
 6.91373e-12
 6.19320e-12
 5.47091e-12
 4.73963e-12
 3.99493e-12
 3.22453e-12
 2.44250e-12
 1.66226e-12
 9.29067e-13
 3.92244e-13
 1.00000e-60
)


51
(
 1.00000e-60
 5.37155e-15
 6.35491e-06
 2.05792e-05
 3.56856e-07
 3.00304e-08
 3.03500e-11
 1.82270e-11
 2.40004e-11
 1.05753e-10
 3.54093e-10
 9.17659e-10
 1.57925e-09
 1.80484e-09
 1.83084e-10
 1.38400e-10
 1.08374e-10
 8.74238e-11
 7.22554e-11
 6.09133e-11
 5.21868e-11
 4.53011e-11
 3.97848e-11
 3.52914e-11
 3.15139e-11
 2.83394e-11
 2.56150e-11
 2.32587e-11
 2.11972e-11
 1.93911e-11
 1.77742e-11
 1.63438e-11
 1.50506e-11
 1.38705e-11
 1.27922e-11
 1.17984e-11
 1.08676e-11
 9.98785e-12
 9.14761e-12
 8.33595e-12
 7.54225e-12
 6.75622e-12
 5.96827e-12
 5.17050e-12
 4.35810e-12
 3.51766e-12
 2.66455e-12
 1.81337e-12
 1.01353e-12
 4.27903e-13
 1.00000e-60
)


51
(
 1.00000e-60
 1.09768e-14
 7.48782e-06
 2.42502e-05
 4.20290e-07
 3.54148e-08
 6.37088e-11
 5.49162e-11
 5.03466e-11
 1.14566e-10
 3.83601e-10
 9.94131e-10
 1.71085e-09
 1.95524e-09
 1.98341e-10
 1.49933e-10
 1.17406e-10
 9.47091e-11
 7.82767e-11
 6.59895e-11
 5.65356e-11
 4.90762e-11
 4.31002e-11
 3.82324e-11
 3.41400e-11
 3.07010e-11
 2.77495e-11
 2.51969e-11
 2.29636e-11
 2.10070e-11
 1.92554e-11
 1.77058e-11
 1.63048e-11
 1.50263e-11
 1.38583e-11
 1.27816e-11
 1.17733e-11
 1.08202e-11
 9.90991e-12
 9.03061e-12
 8.17077e-12
 7.31924e-12
 6.46562e-12
 5.60138e-12
 4.72128e-12
 3.81080e-12
 2.88659e-12
 1.96448e-12
 1.09799e-12
 4.63561e-13
 1.00000e-60
)


51
(
 1.00000e-60
 5.00159e-14
 8.70904e-06
 2.82080e-05
 4.88624e-07
 4.12269e-08
 2.23859e-10
 1.94550e-10
 1.14748e-10
 1.23378e-10
 4.13108e-10
 1.07060e-09
 1.84246e-09
 2.10565e-09
 2.13598e-10
 1.61467e-10
 1.26437e-10
 1.01994e-10
 8.42980e-11
 7.10656e-11
 6.08845e-11
 5.28513e-11
 4.64156e-11
 4.11733e-11
 3.67662e-11
 3.30626e-11
 2.98841e-11
 2.71351e-11
 2.47300e-11
 2.26229e-11
 2.07365e-11
 1.90678e-11
 1.75590e-11
 1.61822e-11
 1.49243e-11
 1.37648e-11
 1.26789e-11
 1.16525e-11
 1.06722e-11
 9.72528e-12
 8.79929e-12
 7.88226e-12
 6.96298e-12
 6.03225e-12
 5.08445e-12
 4.10394e-12
 3.10864e-12
 2.11560e-12
 1.18245e-12
 4.99220e-13
 1.00000e-60
)


51
(
 1.00000e-60
 9.77616e-14
 1.00176e-05
 3.24494e-05
 5.61792e-07
 4.74631e-08
 5.09653e-10
 4.25747e-10
 2.99337e-10
 2.53689e-10
 4.42616e-10
 1.14707e-09
 1.97406e-09
 2.25605e-09
 2.28855e-10
 1.73000e-10
 1.35468e-10
 1.09280e-10
 9.03193e-11
 7.61417e-11
 6.52334e-11
 5.66264e-11
 4.97310e-11
 4.41143e-11
 3.93923e-11
 3.54242e-11
 3.20187e-11
 2.90733e-11
 2.64965e-11
 2.42389e-11
 2.22177e-11
 2.04298e-11
 1.88132e-11
 1.73381e-11
 1.59903e-11
 1.47480e-11
 1.35846e-11
 1.24848e-11
 1.14345e-11
 1.04199e-11
 9.42781e-12
 8.44527e-12
 7.46033e-12
 6.46313e-12
 5.44763e-12
 4.39708e-12
 3.33068e-12
 2.26671e-12
 1.26691e-12
 5.34878e-13
 1.00000e-60
)


51
(
 1.00000e-60
 2.21385e-13
 1.14124e-05
 3.69712e-05
 6.39731e-07
 5.41199e-08
 1.85185e-09
 9.41918e-10
 7.31098e-10
 5.13129e-10
 4.72124e-10
 1.22355e-09
 2.10566e-09
 2.40645e-09
 2.44112e-10
 1.84533e-10
 1.44499e-10
 1.16565e-10
 9.63406e-11
 8.12178e-11
 6.95823e-11
 6.04015e-11
 5.30464e-11
 4.70552e-11
 4.20185e-11
 3.77859e-11
 3.41533e-11
 3.10115e-11
 2.82629e-11
 2.58548e-11
 2.36989e-11
 2.17917e-11
 2.00674e-11
 1.84939e-11
 1.70563e-11
 1.57312e-11
 1.44902e-11
 1.33171e-11
 1.21968e-11
 1.11146e-11
 1.00563e-11
 9.00829e-12
 7.95769e-12
 6.89401e-12
 5.81080e-12
 4.69022e-12
 3.55273e-12
 2.41783e-12
 1.35137e-12
 5.70537e-13
 1.00000e-60
)


51
(
 1.00000e-60
 5.05540e-13
 1.28926e-05
 4.17702e-05
 7.22378e-07
 6.11936e-08
 3.19405e-09
 2.24794e-09
 1.79787e-09
 1.13242e-09
 8.98434e-10
 1.30002e-09
 2.23727e-09
 2.55686e-09
 2.59369e-10
 1.96067e-10
 1.53531e-10
 1.23850e-10
 1.02362e-10
 8.62939e-11
 7.39312e-11
 6.41766e-11
 5.63618e-11
 4.99962e-11
 4.46446e-11
 4.01475e-11
 3.62878e-11
 3.29498e-11
 3.00293e-11
 2.74707e-11
 2.51801e-11
 2.31537e-11
 2.13217e-11
 1.96498e-11
 1.81224e-11
 1.67144e-11
 1.53958e-11
 1.41495e-11
 1.29591e-11
 1.18093e-11
 1.06848e-11
 9.57131e-12
 8.45504e-12
 7.32488e-12
 6.17398e-12
 4.98336e-12
 3.77477e-12
 2.56894e-12
 1.43583e-12
 6.06195e-13
 1.00000e-60
)


51
(
 1.00000e-60
 1.46830e-12
 1.44570e-05
 4.68433e-05
 8.09669e-07
 6.86807e-08
 1.18798e-08
 4.90856e-09
 2.86464e-09
 1.91826e-09
 1.59891e-09
 1.37649e-09
 2.36887e-09
 2.70726e-09
 2.74626e-10
 2.07600e-10
 1.62562e-10
 1.31136e-10
 1.08383e-10
 9.13700e-11
 7.82801e-11
 6.79516e-11
 5.96772e-11
 5.29372e-11
 4.72708e-11
 4.25091e-11
 3.84224e-11
 3.48880e-11
 3.17958e-11
 2.90866e-11
 2.66613e-11
 2.45157e-11
 2.25759e-11
 2.08057e-11
 1.91884e-11
 1.76976e-11
 1.63015e-11
 1.49818e-11
 1.37214e-11
 1.25039e-11
 1.13134e-11
 1.01343e-11
 8.95240e-12
 7.75576e-12
 6.53715e-12
 5.27650e-12
 3.99682e-12
 2.72005e-12
 1.52029e-12
 6.41854e-13
 1.00000e-60
)


51
(
 1.00000e-60
 2.86411e-12
 1.61047e-05
 5.21873e-05
 9.01540e-07
 7.65777e-08
 2.16732e-08
 1.09635e-08
 5.98536e-09
 4.43462e-09
 2.87106e-09
 2.30332e-09
 2.50048e-09
 2.85766e-09
 2.89883e-10
 2.19133e-10
 1.71593e-10
 1.38421e-10
 1.14404e-10
 9.64461e-11
 8.26290e-11
 7.17267e-11
 6.29926e-11
 5.58781e-11
 4.98969e-11
 4.48707e-11
 4.05570e-11
 3.68262e-11
 3.35622e-11
 3.07025e-11
 2.81424e-11
 2.58777e-11
 2.38301e-11
 2.19615e-11
 2.02544e-11
 1.86808e-11
 1.72071e-11
 1.58141e-11
 1.44837e-11
 1.31986e-11
 1.19419e-11
 1.06973e-11
 9.44976e-12
 8.18663e-12
 6.90033e-12
 5.56964e-12
 4.21886e-12
 2.87117e-12
 1.60475e-12
 6.77512e-13
 1.00000e-60
)


51
(
 1.00000e-60
 9.58204e-12
 1.78347e-05
 5.77990e-05
 9.97928e-07
 8.48810e-08
 3.14665e-08
 1.70184e-08
 1.02275e-08
 7.14727e-09
 4.64248e-09
 3.54145e-09
 2.76391e-09
 3.00807e-09
 3.05140e-10
 2.30667e-10
 1.80624e-10
 1.45706e-10
 1.20426e-10
 1.01522e-10
 8.69779e-11
 7.55018e-11
 6.63080e-11
 5.88191e-11
 5.25231e-11
 4.72323e-11
 4.26916e-11
 3.87644e-11
 3.53286e-11
 3.23185e-11
 2.96236e-11
 2.72397e-11
 2.50843e-11
 2.31174e-11
 2.13204e-11
 1.96640e-11
 1.81127e-11
 1.66464e-11
 1.52460e-11
 1.38933e-11
 1.25704e-11
 1.12604e-11
 9.94711e-12
 8.61751e-12
 7.26350e-12
 5.86277e-12
 4.44091e-12
 3.02228e-12
 1.68921e-12
 7.13171e-13
 1.00000e-60
)


51
(
 1.00000e-60
 1.84604e-11
 1.96460e-05
 6.36753e-05
 1.09877e-06
 9.35870e-08
 5.78920e-08
 1.56385e-08
 1.08262e-08
 9.68403e-09
 4.33242e-09
 3.87934e-09
 3.98574e-09
 3.15847e-09
 3.20397e-10
 2.42200e-10
 1.89655e-10
 1.52992e-10
 1.26447e-10
 1.06598e-10
 9.13268e-11
 7.92769e-11
 6.96234e-11
 6.17600e-11
 5.51492e-11
 4.95939e-11
 4.48262e-11
 4.07027e-11
 3.70951e-11
 3.39344e-11
 3.11048e-11
 2.86017e-11
 2.63385e-11
 2.42733e-11
 2.23864e-11
 2.06472e-11
 1.90184e-11
 1.74787e-11
 1.60083e-11
 1.45879e-11
 1.31989e-11
 1.18234e-11
 1.04445e-11
 9.04838e-12
 7.62668e-12
 6.15591e-12
 4.66296e-12
 3.17340e-12
 1.77367e-12
 7.48829e-13
 1.00000e-60
)


51
(
 1.00000e-60
 4.30302e-11
 2.15375e-05
 6.98130e-05
 1.20400e-06
 1.02692e-07
 8.54355e-08
 1.17984e-08
 6.49855e-09
 4.31957e-09
 2.22260e-09
 1.63280e-09
 1.76831e-09
 1.29041e-09
 3.35654e-10
 2.53733e-10
 1.98687e-10
 1.60277e-10
 1.32468e-10
 1.11674e-10
 9.56757e-11
 8.30520e-11
 7.29388e-11
 6.47010e-11
 5.77754e-11
 5.19555e-11
 4.69607e-11
 4.26409e-11
 3.88615e-11
 3.55503e-11
 3.25860e-11
 2.99636e-11
 2.75927e-11
 2.54292e-11
 2.34525e-11
 2.16304e-11
 1.99240e-11
 1.83111e-11
 1.67706e-11
 1.52826e-11
 1.38275e-11
 1.23864e-11
 1.09418e-11
 9.47926e-12
 7.98985e-12
 6.44905e-12
 4.88500e-12
 3.32451e-12
 1.85813e-12
 7.84488e-13
 1.00000e-60
)


51
(
 1.00000e-60
 9.11704e-11
 2.35083e-05
 7.62089e-05
 1.31355e-06
 1.12193e-07
 3.50221e-08
 3.41807e-08
 2.30296e-08
 1.23115e-08
 2.28502e-09
 1.38919e-09
 8.89219e-10
 6.00162e-10
 4.25908e-10
 1.49930e-09
 5.39549e-10
 2.53334e-10
 1.58107e-10
 1.31825e-10
 1.11828e-10
 9.62108e-11
 8.38188e-11
 7.38131e-11
 6.54620e-11
 5.84927e-11
 5.25437e-11
 4.74221e-11
 4.29562e-11
 3.90544e-11
 3.55682e-11
 3.24908e-11
 2.97153e-11
 2.71899e-11
 2.48927e-11
 2.27885e-11
 2.08320e-11
 1.89999e-11
 1.72694e-11
 1.56197e-11
 1.40302e-11
 1.24812e-11
 1.09541e-11
 9.43286e-12
 7.90632e-12
 6.35687e-12
 4.80053e-12
 3.25864e-12
 1.82157e-12
 7.69174e-13
 1.00000e-60
)


51
(
 1.00000e-60
 3.57022e-10
 2.55573e-05
 8.28598e-05
 1.42737e-06
 1.22086e-07
 8.81278e-08
 2.42922e-08
 1.13372e-08
 5.69980e-09
 3.01095e-09
 1.70065e-09
 5.69380e-09
 4.39847e-09
 4.11281e-10
 1.59812e-09
 6.33630e-10
 3.10796e-10
 1.66968e-10
 9.89887e-11
 6.58604e-11
 4.87058e-11
 3.89731e-11
 3.26753e-11
 2.80340e-11
 2.44528e-11
 2.15192e-11
 1.90584e-11
 1.69475e-11
 1.51251e-11
 1.35097e-11
 1.20947e-11
 1.08267e-11
 9.68107e-12
 8.64897e-12
 7.71537e-12
 6.86113e-12
 6.07738e-12
 5.35645e-12
 4.69119e-12
 4.07522e-12
 3.50241e-12
 2.96696e-12
 2.46346e-12
 1.98684e-12
 1.54464e-12
 1.12853e-12
 7.36643e-13
 4.02235e-13
 1.65251e-13
 1.00000e-60
)


51
(
 1.00000e-60
 7.57308e-10
 2.95171e-05
 9.59113e-05
 1.63387e-06
 1.44826e-07
 8.74638e-08
 3.64908e-08
 1.71029e-08
 8.72168e-09
 4.68422e-09
 1.22488e-08
 1.60134e-09
 1.00365e-09
 6.62187e-10
 2.36879e-09
 3.32923e-10
 2.51111e-10
 1.95870e-10
 1.57170e-10
 1.29141e-10
 1.08228e-10
 9.23237e-11
 7.99557e-11
 6.99382e-11
 6.18008e-11
 5.49930e-11
 4.92235e-11
 4.42493e-11
 3.99396e-11
 3.61121e-11
 3.27562e-11
 2.97453e-11
 2.70245e-11
 2.45721e-11
 2.23491e-11
 2.03080e-11
 1.84220e-11
 1.66675e-11
 1.50200e-11
 1.34570e-11
 1.19556e-11
 1.04933e-11
 9.04942e-12
 7.60934e-12
 6.14970e-12
 4.67536e-12
 3.20552e-12
 1.80943e-12
 7.72486e-13
 1.00000e-60
)


51
(
 1.00000e-60
 1.15759e-09
 3.90728e-05
 1.27722e-04
 2.11083e-06
 2.05471e-07
 1.37924e-07
 7.72350e-08
 3.51905e-08
 1.52962e-08
 8.63610e-09
 5.21424e-09
 6.10286e-09
 2.16944e-09
 3.86925e-09
 1.79421e-09
 1.06465e-09
 7.27038e-10
 5.34059e-10
 4.15158e-10
 3.37348e-10
 2.83132e-10
 2.43392e-10
 2.12846e-10
 1.88069e-10
 1.67794e-10
 1.50679e-10
 1.36039e-10
 1.23315e-10
 1.12212e-10
 1.02295e-10
 9.35511e-11
 8.56762e-11
 7.85321e-11
 7.20658e-11
 6.61761e-11
 6.07365e-11
 5.56734e-11
 5.09171e-11
 4.63971e-11
 4.20446e-11
 3.77891e-11
 3.35609e-11
 2.92964e-11
 2.49510e-11
 2.04031e-11
 1.56977e-11
 1.09211e-11
 6.23226e-12
 2.69295e-12
 1.00000e-60
)


51
(
 1.00000e-60
 8.43108e-09
 5.38447e-05
 1.77019e-04
 2.83982e-06
 3.01465e-07
 2.09372e-07
 9.30572e-08
 4.71530e-08
 2.57662e-08
 1.03400e-08
 5.88206e-09
 4.32059e-09
 1.79757e-09
 1.30497e-09
 6.08759e-10
 3.74895e-10
 2.41412e-10
 1.62725e-10
 1.14723e-10
 8.43954e-11
 6.45305e-11
 5.12056e-11
 4.19585e-11
 3.51382e-11
 3.00746e-11
 2.61265e-11
 2.29787e-11
 2.03921e-11
 1.82354e-11
 1.63737e-11
 1.47748e-11
 1.33676e-11
 1.21111e-11
 1.09898e-11
 9.98491e-12
 9.06858e-12
 8.22935e-12
 7.45324e-12
 6.73036e-12
 6.04883e-12
 5.39701e-12
 4.76278e-12
 4.13603e-12
 3.50855e-12
 2.86440e-12
 2.20318e-12
 1.53522e-12
 8.79970e-13
 3.82063e-13
 1.00000e-60
)


51
(
 1.00000e-60
 1.71125e-08
 7.33138e-05
 2.42065e-04
 3.79571e-06
 4.29309e-07
 3.11047e-07
 1.37770e-07
 6.69696e-08
 3.53729e-08
 2.02820e-08
 1.28995e-08
 6.83431e-09
 3.72302e-09
 1.71358e-09
 8.96764e-10
 4.64319e-10
 2.38418e-10
 1.21777e-10
 6.21787e-11
 3.19039e-11
 1.65355e-11
 8.83846e-12
 4.92237e-12
 2.78428e-12
 1.65343e-12
 1.01171e-12
 6.43923e-13
 4.23069e-13
 2.90522e-13
 2.03696e-13
 1.49150e-13
 1.11764e-13
 8.52134e-14
 6.62869e-14
 5.24142e-14
 4.17185e-14
 3.33288e-14
 2.66544e-14
 2.12812e-14
 1.69167e-14
 1.33468e-14
 1.04079e-14
 7.97037e-15
 5.93044e-15
 4.33864e-15
 2.99737e-15
 1.84425e-15
 9.86452e-16
 3.95124e-16
 1.00000e-60
)


51
(
 1.00000e-60
 2.57938e-08
 9.69610e-05
 3.21119e-04
 4.95337e-06
 5.85502e-07
 4.49851e-07
 1.93527e-07
 9.27020e-08
 4.84696e-08
 2.71822e-08
 1.65533e-08
 9.93337e-09
 6.11228e-09
 4.25398e-09
 2.71725e-09
 1.79525e-09
 1.24082e-09
 9.00612e-10
 6.84958e-10
 5.42229e-10
 4.43135e-10
 3.71778e-10
 3.18371e-10
 2.76212e-10
 2.42705e-10
 2.15126e-10
 1.92076e-10
 1.72429e-10
 1.55579e-10
 1.40720e-10
 1.27771e-10
 1.16216e-10
 1.05815e-10
 9.64738e-11
 8.80427e-11
 8.03247e-11
 7.32182e-11
 6.66252e-11
 6.04504e-11
 5.45962e-11
 4.89643e-11
 4.34543e-11
 3.79707e-11
 3.24404e-11
 2.66894e-11
 2.07122e-11
 1.46059e-11
 8.46862e-12
 3.72227e-12
 1.00000e-60
)


51
(
 1.00000e-60
 3.44752e-08
 1.24268e-04
 4.12444e-04
 6.28765e-06
 7.66543e-07
 5.99185e-07
 2.58622e-07
 1.23193e-07
 6.39304e-08
 3.53606e-08
 2.10233e-08
 1.30656e-08
 8.48634e-09
 5.74940e-09
 4.05108e-09
 2.95634e-09
 2.22829e-09
 1.72841e-09
 1.37520e-09
 1.11889e-09
 9.28217e-10
 7.84284e-10
 6.73541e-10
 5.84872e-10
 5.13839e-10
 4.55195e-10
 4.06144e-10
 3.64348e-10
 3.28539e-10
 2.96993e-10
 2.69541e-10
 2.45065e-10
 2.23052e-10
 2.03301e-10
 1.85485e-10
 1.69188e-10
 1.54190e-10
 1.40287e-10
 1.27273e-10
 1.14945e-10
 1.03094e-10
 9.15083e-11
 7.99848e-11
 6.83671e-11
 5.62859e-11
 4.37208e-11
 3.08737e-11
 1.79294e-11
 7.89383e-12
 1.00000e-60
)


51
(
 1.00000e-60
 1.09441e-07
 1.54714e-04
 5.14300e-04
 7.77342e-06
 9.68932e-07
 8.40125e-07
 3.52514e-07
 1.65343e-07
 8.48118e-08
 4.64133e-08
 2.73192e-08
 1.68032e-08
 1.07984e-08
 7.23737e-09
 5.04521e-09
 3.64332e-09
 2.71836e-09
 2.08825e-09
 1.64650e-09
 1.32844e-09
 1.09368e-09
 9.17890e-10
 7.83713e-10
 6.77058e-10
 5.92270e-10
 5.22752e-10
 4.64991e-10
 4.16066e-10
 3.74388e-10
 3.37833e-10
 3.06166e-10
 2.78026e-10
 2.52787e-10
 2.30198e-10
 2.09868e-10
 1.91305e-10
 1.74254e-10
 1.58476e-10
 1.43737e-10
 1.29804e-10
 1.16440e-10
 1.03402e-10
 9.04544e-11
 7.74158e-11
 6.38572e-11
 4.97267e-11
 3.52467e-11
 2.05574e-11
 9.09191e-12
 1.00000e-60
)


51
(
 1.00000e-60
 2.01861e-07
 1.87782e-04
 6.24948e-04
 9.38554e-06
 1.18917e-06
 1.08106e-06
 4.46405e-07
 2.08145e-07
 1.06095e-07
 5.76745e-08
 3.37245e-08
 2.05985e-08
 1.31411e-08
 8.74185e-09
 6.04815e-09
 4.33488e-09
 3.21065e-09
 2.44897e-09
 1.91792e-09
 1.53770e-09
 1.25863e-09
 1.05087e-09
 8.93214e-10
 7.68568e-10
 6.70043e-10
 5.89680e-10
 5.23245e-10
 4.67231e-10
 4.19722e-10
 3.78199e-10
 3.42356e-10
 3.10587e-10
 2.82158e-10
 2.56765e-10
 2.33952e-10
 2.13152e-10
 1.94074e-10
 1.76447e-10
 1.60008e-10
 1.44494e-10
 1.29638e-10
 1.15167e-10
 1.00817e-10
 8.63771e-11
 7.13605e-11
 5.56835e-11
 3.95887e-11
 2.31696e-11
 1.02840e-11
 1.00000e-60
)


51
(
 1.00000e-60
 2.94281e-07
 2.22953e-04
 7.42650e-04
 1.10989e-05
 1.42375e-06
 1.41029e-06
 5.78008e-07
 2.66143e-07
 1.34235e-07
 7.22389e-08
 4.18314e-08
 2.52900e-08
 1.59635e-08
 1.05049e-08
 7.18979e-09
 5.09869e-09
 3.73800e-09
 2.82369e-09
 2.19140e-09
 1.74231e-09
 1.41531e-09
 1.17381e-09
 9.91998e-10
 8.49263e-10
 7.37277e-10
 6.46538e-10
 5.72005e-10
 5.09524e-10
 4.56824e-10
 4.10966e-10
 3.71559e-10
 3.36754e-10
 3.05696e-10
 2.78030e-10
 2.53231e-10
 2.30663e-10
 2.09997e-10
 1.90933e-10
 1.73180e-10
 1.56450e-10
 1.40452e-10
 1.24886e-10
 1.09458e-10
 9.39370e-11
 7.77744e-11
 6.08528e-11
 4.34317e-11
 2.55268e-11
 1.13799e-11
 1.00000e-60
)


51
(
 1.00000e-60
 8.18562e-07
 2.59706e-04
 8.65666e-04
 1.28883e-05
 1.66918e-06
 1.78398e-06
 7.24233e-07
 3.30565e-07
 1.65298e-07
 8.81696e-08
 5.06090e-08
 3.03105e-08
 1.89442e-08
 1.23398e-08
 8.35922e-09
 5.86791e-09
 4.25971e-09
 3.18768e-09
 2.45214e-09
 1.93379e-09
 1.55925e-09
 1.28481e-09
 1.07976e-09
 9.19883e-10
 7.95340e-10
 6.95066e-10
 6.13201e-10
 5.44950e-10
 4.87686e-10
 4.38064e-10
 3.95607e-10
 3.58231e-10
 3.24972e-10
 2.95423e-10
 2.68994e-10
 2.44985e-10
 2.23037e-10
 2.02819e-10
 1.84018e-10
 1.66324e-10
 1.49423e-10
 1.32991e-10
 1.16713e-10
 1.00335e-10
 8.32525e-11
 6.53133e-11
 4.67914e-11
 2.76130e-11
 1.23611e-11
 1.00000e-60
)


51
(
 1.00000e-60
 1.37535e-06
 2.97524e-04
 9.92257e-04
 1.47286e-05
 1.92196e-06
 2.22454e-06
 8.94039e-07
 4.04463e-07
 2.00486e-07
 1.05968e-07
 6.02736e-08
 3.57460e-08
 2.21093e-08
 1.42455e-08
 9.54372e-09
 6.62558e-09
 4.75815e-09
 3.52419e-09
 2.68490e-09
 2.09855e-09
 1.67849e-09
 1.37334e-09
 1.14726e-09
 9.72297e-10
 8.37051e-10
 7.28898e-10
 6.41170e-10
 5.68449e-10
 5.07767e-10
 4.55408e-10
 4.10807e-10
 3.71676e-10
 3.36956e-10
 3.06189e-10
 2.78736e-10
 2.53841e-10
 2.31121e-10
 2.10224e-10
 1.90819e-10
 1.72579e-10
 1.55174e-10
 1.38265e-10
 1.21516e-10
 1.04661e-10
 8.70430e-11
 6.84792e-11
 4.92518e-11
 2.91848e-11
 1.31193e-11
 1.00000e-60
)


51
(
 1.00000e-60
 1.93214e-06
 3.35887e-04
 1.12068e-03
 1.65947e-05
 2.17858e-06
 2.72613e-06
 1.08108e-06
 4.84688e-07
 2.38312e-07
 1.24922e-07
 7.04659e-08
 4.14135e-08
 2.53654e-08
 1.61750e-08
 1.07208e-08
 7.36227e-09
 5.23079e-09
 3.83430e-09
 2.89260e-09
 2.24035e-09
 1.77708e-09
 1.44347e-09
 1.19841e-09
 1.01018e-09
 8.65838e-10
 7.51203e-10
 6.58827e-10
 5.82696e-10
 5.19517e-10
 4.65238e-10
 4.19207e-10
 3.78956e-10
 3.43345e-10
 3.11874e-10
 2.83856e-10
 2.58498e-10
 2.35393e-10
 2.14176e-10
 1.94499e-10
 1.76028e-10
 1.58420e-10
 1.41324e-10
 1.24393e-10
 1.07346e-10
 8.94885e-11
 7.06042e-11
 5.09802e-11
 3.03322e-11
 1.36910e-11
 1.00000e-60
)


51
(
 1.00000e-60
 4.67480e-06
 3.74277e-04
 1.24921e-03
 1.84615e-05
 2.43555e-06
 3.27569e-06
 1.28828e-06
 5.73034e-07
 2.79442e-07
 1.45201e-07
 8.11770e-08
 4.72440e-08
 2.86304e-08
 1.80503e-08
 1.18218e-08
 8.01935e-09
 5.62829e-09
 4.07673e-09
 3.04073e-09
 2.33027e-09
 1.83067e-09
 1.47456e-09
 1.21557e-09
 1.01841e-09
 8.68587e-10
 7.50547e-10
 6.56134e-10
 5.78826e-10
 5.15056e-10
 4.60521e-10
 4.14488e-10
 3.74375e-10
 3.38989e-10
 3.07801e-10
 2.80101e-10
 2.55077e-10
 2.32316e-10
 2.11446e-10
 1.92120e-10
 1.74001e-10
 1.56746e-10
 1.40004e-10
 1.23426e-10
 1.06726e-10
 8.91894e-11
 7.05744e-11
 5.11631e-11
 3.05653e-11
 1.38524e-11
 1.00000e-60
)


51
(
 1.00000e-60
 7.53288e-06
 4.12174e-04
 1.37609e-03
 2.03038e-05
 2.68936e-06
 3.98179e-06
 1.56557e-06
 6.92225e-07
 3.35498e-07
 1.73588e-07
 9.54482e-08
 5.50135e-08
 3.30897e-08
 2.06838e-08
 1.33975e-08
 8.97108e-09
 6.20445e-09
 4.42671e-09
 3.25414e-09
 2.46322e-09
 1.91757e-09
 1.53028e-09
 1.24979e-09
 1.04025e-09
 8.81681e-10
 7.58268e-10
 6.60383e-10
 5.81013e-10
 5.15697e-10
 4.60534e-10
 4.13717e-10
 3.73288e-10
 3.37879e-10
 3.06628e-10
 2.78899e-10
 2.53965e-10
 2.31284e-10
 2.10546e-10
 1.91424e-10
 1.73497e-10
 1.56456e-10
 1.39971e-10
 1.23608e-10
 1.07021e-10
 8.98084e-11
 7.12573e-11
 5.17465e-11
 3.11074e-11
 1.45955e-11
 1.00000e-60
)


51
(
 1.00000e-60
 1.03910e-05
 4.49059e-04
 1.49960e-03
 2.20965e-05
 2.93652e-06
 4.77559e-06
 1.84842e-06
 8.09468e-07
 3.89550e-07
 2.00467e-07
 1.08847e-07
 6.21878e-08
 3.71167e-08
 2.29996e-08
 1.47392e-08
 9.74874e-09
 6.64979e-09
 4.67662e-09
 3.38940e-09
 2.53337e-09
 1.95227e-09
 1.54253e-09
 1.24775e-09
 1.03111e-09
 8.68246e-10
 7.42973e-10
 6.44494e-10
 5.65404e-10
 5.00573e-10
 4.46408e-10
 4.00324e-10
 3.60837e-10
 3.26462e-10
 2.96117e-10
 2.69227e-10
 2.45142e-10
 2.23243e-10
 2.03269e-10
 1.84917e-10
 1.67720e-10
 1.51400e-10
 1.35652e-10
 1.19995e-10
 1.04044e-10
 8.76356e-11
 6.97265e-11
 5.07382e-11
 3.06850e-11
 1.47499e-11
 1.00000e-60
)


51
(
 1.00000e-60
 1.90862e-05
 4.84414e-04
 1.61798e-03
 2.38144e-05
 3.17352e-06
 5.43498e-06
 2.08800e-06
 9.07707e-07
 4.33396e-07
 2.21157e-07
 1.19006e-07
 6.73481e-08
 3.97860e-08
 2.43774e-08
 1.54296e-08
 1.00682e-08
 6.76911e-09
 4.68945e-09
 3.34758e-09
 2.46581e-09
 1.87474e-09
 1.46318e-09
 1.17087e-09
 9.58825e-10
 8.01398e-10
 6.81735e-10
 5.88679e-10
 5.14659e-10
 4.54477e-10
 4.04536e-10
 3.62278e-10
 3.26233e-10
 2.94965e-10
 2.67439e-10
 2.43104e-10
 2.21350e-10
 2.01603e-10
 1.83621e-10
 1.67126e-10
 1.51690e-10
 1.37060e-10
 1.22957e-10
 1.08938e-10
 9.46449e-11
 7.99233e-11
 6.37807e-11
 4.65691e-11
 2.83027e-11
 1.36337e-11
 1.00000e-60
)


51
(
 1.00000e-60
 3.43311e-05
 5.17719e-04
 1.72951e-03
 2.54324e-05
 3.39686e-06
 6.06911e-06
 2.31591e-06
 9.99664e-07
 4.73512e-07
 2.39553e-07
 1.27732e-07
 7.15973e-08
 4.18647e-08
 2.53642e-08
 1.58551e-08
 1.02039e-08
 6.75761e-09
 4.60692e-09
 3.23457e-09
 2.34383e-09
 1.75463e-09
 1.34985e-09
 1.06642e-09
 8.63780e-10
 7.15482e-10
 6.04304e-10
 5.18947e-10
 4.51823e-10
 3.97781e-10
 3.53300e-10
 3.15904e-10
 2.84178e-10
 2.56765e-10
 2.32707e-10
 2.11490e-10
 1.92563e-10
 1.75410e-10
 1.59816e-10
 1.45535e-10
 1.32190e-10
 1.19558e-10
 1.07395e-10
 9.53083e-11
 8.29753e-11
 7.02557e-11
 5.62402e-11
 4.12070e-11
 2.51696e-11
 1.21505e-11
 1.00000e-60
)


51
(
 1.00000e-60
 7.11934e-05
 5.48456e-04
 1.83243e-03
 2.69254e-05
 3.60305e-06
 6.64024e-06
 2.51937e-06
 1.07940e-06
 5.06917e-07
 2.54085e-07
 1.34170e-07
 7.44578e-08
 4.30818e-08
 2.58051e-08
 1.59273e-08
 1.01060e-08
 6.58829e-09
 4.41511e-09
 3.04402e-09
 2.16536e-09
 1.59223e-09
 1.20416e-09
 9.36630e-10
 7.48463e-10
 6.13024e-10
 5.13127e-10
 4.37608e-10
 3.79047e-10
 3.32469e-10
 2.94517e-10
 2.62867e-10
 2.36191e-10
 2.13250e-10
 1.93187e-10
 1.75542e-10
 1.59835e-10
 1.45625e-10
 1.32727e-10
 1.20934e-10
 1.09930e-10
 9.95285e-11
 8.95246e-11
 7.95864e-11
 6.94381e-11
 5.89575e-11
 4.73495e-11
 3.48184e-11
 2.13764e-11
 1.03418e-11
 1.00000e-60
)


51
(
 1.00000e-60
 3.12558e-04
 5.76105e-04
 1.92503e-03
 2.82682e-05
 3.78858e-06
 7.10575e-06
 2.67879e-06
 1.13866e-06
 5.29641e-07
 2.62705e-07
 1.37223e-07
 7.53259e-08
 4.31000e-08
 2.55112e-08
 1.55419e-08
 9.71865e-09
 6.23282e-09
 4.10156e-09
 2.77236e-09
 1.93162e-09
 1.39122e-09
 1.03091e-09