/*--------------------------------*- C++ -*----------------------------------*\
| =========                 |                                                 |
| \      /  F ield          | OpenFOAM: The Open Source CFD Toolbox           |
|  \    /   O peration      | Version:  7                                     |
|   \  /    A nd            | Web:      http://www.OpenFOAM.com               |
|    \/     M anipulation   |                                                 |
\*---------------------------------------------------------------------------*/
FoamFile 
{   version     2.0;
    format      ascii;
    class       dictionary;
    location    "constant";
    object      LDMtable;
}
// * * * * * * * * * * * * * * * * * * * * * * * * * * * * * * * * * * * * * //

psi_table
51
(

51
(
 1.16504e-05
 1.14695e-05
 1.14445e-05
 1.12611e-05
 1.10910e-05
 1.09329e-05
 1.06315e-05
 1.04787e-05
 1.03302e-05
 1.01860e-05
 1.00456e-05
 9.90915e-06
 9.77631e-06
 9.64697e-06
 9.52101e-06
 9.39833e-06
 9.27874e-06
 9.16218e-06
 9.04848e-06
 8.93760e-06
 8.82940e-06
 8.72377e-06
 8.62064e-06
 8.51993e-06
 8.42155e-06
 8.32541e-06
 8.23144e-06
 8.13956e-06
 8.04971e-06
 7.96184e-06
 7.87586e-06
 7.79171e-06
 7.70934e-06
 7.62870e-06
 7.54972e-06
 7.47237e-06
 7.39658e-06
 7.32232e-06
 7.24953e-06
 7.17818e-06
 7.10821e-06
 7.03958e-06
 6.97230e-06
 6.90627e-06
 6.84148e-06
 6.77790e-06
 6.71551e-06
 6.65423e-06
 6.59406e-06
 6.53498e-06
 6.47689e-06
)


51
(
 1.16504e-05
 1.09794e-05
 1.14364e-05
 1.12526e-05
 1.10648e-05
 1.05639e-05
 9.97583e-06
 9.90586e-06
 9.82699e-06
 9.74108e-06
 9.64976e-06
 9.55423e-06
 9.45437e-06
 9.34989e-06
 9.23208e-06
 9.11737e-06
 9.00560e-06
 8.89671e-06
 8.79056e-06
 8.68712e-06
 8.58625e-06
 8.48786e-06
 8.39189e-06
 8.29827e-06
 8.20692e-06
 8.11777e-06
 8.03074e-06
 7.94579e-06
 7.86286e-06
 7.78190e-06
 7.70285e-06
 7.62567e-06
 7.55031e-06
 7.47673e-06
 7.40489e-06
 7.33478e-06
 7.26635e-06
 7.19956e-06
 7.13441e-06
 7.07087e-06
 7.00892e-06
 6.94855e-06
 6.88979e-06
 6.83256e-06
 6.77685e-06
 6.72287e-06
 6.67048e-06
 6.61954e-06
 6.57042e-06
 6.52296e-06
 6.47689e-06
)


51
(
 1.16504e-05
 1.04893e-05
 1.13625e-05
 1.11740e-05
 1.09708e-05
 1.01864e-05
 9.32013e-06
 9.33299e-06
 9.32375e-06
 9.29619e-06
 9.25390e-06
 9.19932e-06
 9.13243e-06
 9.05280e-06
 8.94315e-06
 8.83641e-06
 8.73245e-06
 8.63124e-06
 8.53264e-06
 8.43664e-06
 8.34310e-06
 8.25195e-06
 8.16313e-06
 8.07660e-06
 7.99229e-06
 7.91012e-06
 7.83005e-06
 7.75202e-06
 7.67600e-06
 7.60197e-06
 7.52985e-06
 7.45963e-06
 7.39128e-06
 7.32477e-06
 7.26006e-06
 7.19720e-06
 7.13612e-06
 7.07681e-06
 7.01929e-06
 6.96356e-06
 6.90964e-06
 6.85752e-06
 6.80727e-06
 6.75884e-06
 6.71223e-06
 6.66784e-06
 6.62546e-06
 6.58486e-06
 6.54678e-06
 6.51093e-06
 6.47689e-06
)


51
(
 1.16504e-05
 9.99927e-06
 1.12166e-05
 1.10188e-05
 1.08086e-05
 9.80075e-06
 8.66443e-06
 8.76011e-06
 8.82051e-06
 8.85130e-06
 8.85804e-06
 8.84440e-06
 8.81049e-06
 8.75572e-06
 8.65422e-06
 8.55545e-06
 8.45931e-06
 8.36578e-06
 8.27473e-06
 8.18616e-06
 8.09995e-06
 8.01604e-06
 7.93438e-06
 7.85494e-06
 7.77765e-06
 7.70247e-06
 7.62935e-06
 7.55825e-06
 7.48915e-06
 7.42204e-06
 7.35684e-06
 7.29360e-06
 7.23225e-06
 7.17280e-06
 7.11524e-06
 7.05961e-06
 7.00588e-06
 6.95406e-06
 6.90417e-06
 6.85626e-06
 6.81035e-06
 6.76648e-06
 6.72475e-06
 6.68513e-06
 6.64761e-06
 6.61281e-06
 6.58043e-06
 6.55017e-06
 6.52314e-06
 6.49891e-06
 6.47689e-06
)


51
(
 1.16504e-05
 9.50920e-06
 1.10054e-05
 1.07942e-05
 1.05845e-05
 9.40876e-06
 8.00874e-06
 8.18724e-06
 8.31726e-06
 8.40640e-06
 8.46218e-06
 8.48949e-06
 8.48855e-06
 8.45863e-06
 8.36530e-06
 8.27449e-06
 8.18616e-06
 8.10031e-06
 8.01681e-06
 7.93567e-06
 7.85679e-06
 7.78013e-06
 7.70563e-06
 7.63328e-06
 7.56302e-06
 7.49482e-06
 7.42865e-06
 7.36448e-06
 7.30229e-06
 7.24210e-06
 7.18384e-06
 7.12756e-06
 7.07322e-06
 7.02083e-06
 6.97041e-06
 6.92203e-06
 6.87565e-06
 6.83130e-06
 6.78905e-06
 6.74895e-06
 6.71106e-06
 6.67545e-06
 6.64224e-06
 6.61142e-06
 6.58298e-06
 6.55779e-06
 6.53541e-06
 6.51549e-06
 6.49950e-06
 6.48688e-06
 6.47689e-06
)


51
(
 1.16504e-05
 9.13267e-06
 1.07354e-05
 1.05071e-05
 1.03049e-05
 9.01235e-06
 7.35304e-06
 7.61436e-06
 7.81402e-06
 7.96151e-06
 8.06632e-06
 8.13458e-06
 8.16660e-06
 8.16155e-06
 8.07637e-06
 7.99353e-06
 7.91302e-06
 7.83484e-06
 7.75889e-06
 7.68519e-06
 7.61364e-06
 7.54421e-06
 7.47688e-06
 7.41162e-06
 7.34839e-06
 7.28717e-06
 7.22795e-06
 7.17071e-06
 7.11544e-06
 7.06217e-06
 7.01083e-06
 6.96152e-06
 6.91420e-06
 6.86886e-06
 6.82559e-06
 6.78445e-06
 6.74542e-06
 6.70855e-06
 6.67393e-06
 6.64164e-06
 6.61177e-06
 6.58442e-06
 6.55972e-06
 6.53770e-06
 6.51836e-06
 6.50276e-06
 6.49039e-06
 6.48080e-06
 6.47586e-06
 6.47486e-06
 6.47689e-06
)


51
(
 1.16504e-05
 8.85138e-06
 1.04131e-05
 1.01647e-05
 9.97595e-06
 8.61338e-06
 6.69734e-06
 7.04149e-06
 7.31077e-06
 7.51662e-06
 7.67046e-06
 7.77966e-06
 7.84466e-06
 7.86446e-06
 7.78744e-06
 7.71257e-06
 7.63987e-06
 7.56937e-06
 7.50098e-06
 7.43471e-06
 7.37049e-06
 7.30830e-06
 7.24812e-06
 7.18995e-06
 7.13375e-06
 7.07953e-06
 7.02726e-06
 6.97694e-06
 6.92858e-06
 6.88224e-06
 6.83783e-06
 6.79549e-06
 6.75517e-06
 6.71690e-06
 6.68076e-06
 6.64686e-06
 6.61518e-06
 6.58580e-06
 6.55881e-06
 6.53434e-06
 6.51249e-06
 6.49339e-06
 6.47721e-06
 6.46399e-06
 6.45374e-06
 6.44773e-06
 6.44536e-06
 6.44612e-06
 6.45222e-06
 6.46284e-06
 6.47689e-06
)


51
(
 1.16504e-05
 8.57222e-06
 1.00451e-05
 9.77391e-06
 9.60406e-06
 8.21374e-06
 6.04164e-06
 6.46862e-06
 6.80753e-06
 7.07173e-06
 7.27460e-06
 7.42475e-06
 7.52272e-06
 7.56738e-06
 7.49851e-06
 7.43160e-06
 7.36673e-06
 7.30390e-06
 7.24306e-06
 7.18423e-06
 7.12734e-06
 7.07239e-06
 7.01937e-06
 6.96829e-06
 6.91912e-06
 6.87188e-06
 6.82656e-06
 6.78317e-06
 6.74173e-06
 6.70230e-06
 6.66482e-06
 6.62945e-06
 6.59614e-06
 6.56493e-06
 6.53593e-06
 6.50928e-06
 6.48495e-06
 6.46304e-06
 6.44369e-06
 6.42703e-06
 6.41320e-06
 6.40235e-06
 6.39469e-06
 6.39028e-06
 6.38911e-06
 6.39270e-06
 6.40034e-06
 6.41143e-06
 6.42858e-06
 6.45081e-06
 6.47689e-06
)


51
(
 1.16504e-05
 8.30043e-06
 9.63798e-06
 9.34185e-06
 9.19550e-06
 7.81531e-06
 5.38594e-06
 5.89574e-06
 6.30428e-06
 6.62683e-06
 6.87874e-06
 7.06983e-06
 7.20078e-06
 7.27029e-06
 7.20959e-06
 7.15064e-06
 7.09359e-06
 7.03844e-06
 6.98514e-06
 6.93375e-06
 6.88419e-06
 6.83648e-06
 6.79062e-06
 6.74663e-06
 6.70449e-06
 6.66423e-06
 6.62586e-06
 6.58940e-06
 6.55488e-06
 6.52237e-06
 6.49182e-06
 6.46341e-06
 6.43711e-06
 6.41296e-06
 6.39111e-06
 6.37169e-06
 6.35471e-06
 6.34029e-06
 6.32857e-06
 6.31972e-06
 6.31391e-06
 6.31132e-06
 6.31217e-06
 6.31656e-06
 6.32449e-06
 6.33767e-06
 6.35531e-06
 6.37674e-06
 6.40495e-06
 6.43879e-06
 6.47689e-06
)


51
(
 1.16504e-05
 8.03888e-06
 9.19822e-06
 8.87555e-06
 8.75657e-06
 7.41995e-06
 4.80084e-06
 5.32287e-06
 5.80104e-06
 6.18194e-06
 6.48289e-06
 6.71492e-06
 6.87884e-06
 6.97321e-06
 6.92066e-06
 6.86968e-06
 6.82044e-06
 6.77297e-06
 6.72723e-06
 6.68326e-06
 6.64104e-06
 6.60057e-06
 6.56187e-06
 6.52497e-06
 6.48986e-06
 6.45658e-06
 6.42516e-06
 6.39563e-06
 6.36802e-06
 6.34243e-06
 6.31881e-06
 6.29738e-06
 6.27808e-06
 6.26099e-06
 6.24628e-06
 6.23411e-06
 6.22448e-06
 6.21754e-06
 6.21345e-06
 6.21242e-06
 6.21462e-06
 6.22029e-06
 6.22966e-06
 6.24285e-06
 6.25987e-06
 6.28264e-06
 6.31029e-06
 6.34206e-06
 6.38131e-06
 6.42676e-06
 6.47689e-06
)


51
(
 1.16504e-05
 7.78696e-06
 8.73239e-06
 8.38208e-06
 8.29356e-06
 7.02956e-06
 4.60651e-06
 4.74999e-06
 5.29780e-06
 5.73705e-06
 6.08703e-06
 6.36000e-06
 6.55690e-06
 6.67612e-06
 6.63173e-06
 6.58872e-06
 6.54730e-06
 6.50750e-06
 6.46931e-06
 6.43278e-06
 6.39789e-06
 6.36466e-06
 6.33311e-06
 6.30331e-06
 6.27522e-06
 6.24894e-06
 6.22447e-06
 6.20186e-06
 6.18117e-06
 6.16250e-06
 6.14581e-06
 6.13134e-06
 6.11906e-06
 6.10903e-06
 6.10145e-06
 6.09652e-06
 6.09425e-06
 6.09478e-06
 6.09833e-06
 6.10511e-06
 6.11534e-06
 6.12926e-06
 6.14714e-06
 6.16913e-06
 6.19525e-06
 6.22762e-06
 6.26527e-06
 6.30737e-06
 6.35767e-06
 6.41474e-06
 6.47689e-06
)


51
(
 1.16504e-05
 7.54885e-06
 8.24705e-06
 7.86847e-06
 7.81278e-06
 6.64600e-06
 4.42397e-06
 4.38092e-06
 4.79455e-06
 5.29216e-06
 5.69117e-06
 6.00509e-06
 6.23496e-06
 6.37904e-06
 6.34280e-06
 6.30776e-06
 6.27415e-06
 6.24203e-06
 6.21139e-06
 6.18230e-06
 6.15474e-06
 6.12875e-06
 6.10436e-06
 6.08164e-06
 6.06059e-06
 6.04129e-06
 6.02377e-06
 6.00809e-06
 5.99431e-06
 5.98257e-06
 5.97280e-06
 5.96530e-06
 5.96003e-06
 5.95706e-06
 5.95663e-06
 5.95894e-06
 5.96401e-06
 5.97203e-06
 5.98321e-06
 5.99780e-06
 6.01605e-06
 6.03822e-06
 6.06463e-06
 6.09542e-06
 6.13062e-06
 6.17259e-06
 6.22024e-06
 6.27269e-06
 6.33403e-06
 6.40271e-06
 6.47689e-06
)


51
(
 1.16504e-05
 7.32393e-06
 7.74873e-06
 7.34178e-06
 7.32054e-06
 6.27117e-06
 4.25326e-06
 4.22550e-06
 4.29131e-06
 4.84726e-06
 5.29531e-06
 5.65017e-06
 5.91302e-06
 6.08195e-06
 6.05388e-06
 6.02680e-06
 6.00101e-06
 5.97657e-06
 5.95348e-06
 5.93182e-06
 5.91159e-06
 5.89284e-06
 5.87561e-06
 5.85998e-06
 5.84596e-06
 5.83364e-06
 5.82307e-06
 5.81432e-06
 5.80746e-06
 5.80263e-06
 5.79979e-06
 5.79927e-06
 5.80100e-06
 5.80509e-06
 5.81180e-06
 5.82136e-06
 5.83378e-06
 5.84928e-06
 5.86809e-06
 5.89049e-06
 5.91676e-06
 5.94719e-06
 5.98211e-06
 6.02171e-06
 6.06600e-06
 6.11756e-06
 6.17522e-06
 6.23800e-06
 6.31039e-06
 6.39069e-06
 6.47689e-06
)


51
(
 1.16504e-05
 7.10518e-06
 7.24398e-06
 6.80906e-06
 6.82312e-06
 5.90692e-06
 4.08772e-06
 4.07948e-06
 4.05880e-06
 4.40237e-06
 4.89945e-06
 5.29526e-06
 5.59108e-06
 5.78487e-06
 5.76495e-06
 5.74584e-06
 5.72786e-06
 5.71110e-06
 5.69556e-06
 5.68134e-06
 5.66844e-06
 5.65693e-06
 5.64686e-06
 5.63832e-06
 5.63133e-06
 5.62599e-06
 5.62237e-06
 5.62055e-06
 5.62060e-06
 5.62270e-06
 5.62679e-06
 5.63323e-06
 5.64197e-06
 5.65312e-06
 5.66698e-06
 5.68377e-06
 5.70354e-06
 5.72652e-06
 5.75298e-06
 5.78319e-06
 5.81747e-06
 5.85616e-06
 5.89959e-06
 5.94799e-06
 6.00138e-06
 6.06253e-06
 6.13019e-06
 6.20332e-06
 6.28675e-06
 6.37867e-06
 6.47689e-06
)


51
(
 1.16504e-05
 6.90218e-06
 6.73936e-06
 6.27736e-06
 6.32683e-06
 5.55515e-06
 3.93495e-06
 3.94131e-06
 3.93197e-06
 3.95748e-06
 4.50359e-06
 4.94035e-06
 5.26914e-06
 5.48778e-06
 5.47602e-06
 5.46487e-06
 5.45472e-06
 5.44563e-06
 5.43765e-06
 5.43085e-06
 5.42529e-06
 5.42101e-06
 5.41810e-06
 5.41666e-06
 5.41669e-06
 5.41835e-06
 5.42168e-06
 5.42678e-06
 5.43375e-06
 5.44277e-06
 5.45378e-06
 5.46719e-06
 5.48294e-06
 5.50116e-06
 5.52215e-06
 5.54619e-06
 5.57331e-06
 5.60377e-06
 5.63786e-06
 5.67588e-06
 5.71819e-06
 5.76513e-06
 5.81708e-06
 5.87428e-06
 5.93675e-06
 6.00750e-06
 6.08517e-06
 6.16863e-06
 6.26311e-06
 6.36664e-06
 6.47689e-06
)


51
(
 1.16504e-05
 6.70329e-06
 6.24141e-06
 5.75373e-06
 5.83797e-06
 5.21773e-06
 3.78770e-06
 3.80922e-06
 3.81247e-06
 3.80415e-06
 4.10773e-06
 4.58543e-06
 4.94720e-06
 5.19070e-06
 5.18709e-06
 5.18391e-06
 5.18157e-06
 5.18016e-06
 5.17973e-06
 5.18037e-06
 5.18214e-06
 5.18510e-06
 5.18935e-06
 5.19499e-06
 5.20206e-06
 5.21070e-06
 5.22098e-06
 5.23301e-06
 5.24690e-06
 5.26283e-06
 5.28078e-06
 5.30115e-06
 5.32392e-06
 5.34919e-06
 5.37732e-06
 5.40860e-06
 5.44308e-06
 5.48102e-06
 5.52274e-06
 5.56857e-06
 5.61890e-06
 5.67410e-06
 5.73456e-06
 5.80056e-06
 5.87213e-06
 5.95247e-06
 6.04014e-06
 6.13395e-06
 6.23948e-06
 6.35462e-06
 6.47689e-06
)


51
(
 1.16504e-05
 6.50926e-06
 5.75668e-06
 5.24522e-06
 5.36285e-06
 4.89653e-06
 3.65661e-06
 3.68094e-06
 3.69720e-06
 3.69876e-06
 3.71187e-06
 4.23052e-06
 4.62526e-06
 4.89361e-06
 4.89817e-06
 4.90295e-06
 4.90843e-06
 4.91469e-06
 4.92181e-06
 4.92989e-06
 4.93899e-06
 4.94919e-06
 4.96060e-06
 4.97333e-06
 4.98743e-06
 5.00305e-06
 5.02028e-06
 5.03924e-06
 5.06004e-06
 5.08290e-06
 5.10777e-06
 5.13512e-06
 5.16489e-06
 5.19722e-06
 5.23250e-06
 5.27102e-06
 5.31284e-06
 5.35826e-06
 5.40762e-06
 5.46127e-06
 5.51961e-06
 5.58306e-06
 5.65205e-06
 5.72685e-06
 5.80751e-06
 5.89745e-06
 5.99512e-06
 6.09926e-06
 6.21584e-06
 6.34259e-06
 6.47689e-06
)


51
(
 1.16504e-05
 6.32553e-06
 5.29171e-06
 4.75887e-06
 4.90776e-06
 4.59345e-06
 3.52551e-06
 3.56322e-06
 3.59005e-06
 3.59904e-06
 3.59853e-06
 3.87560e-06
 4.30332e-06
 4.59653e-06
 4.60924e-06
 4.62199e-06
 4.63528e-06
 4.64923e-06
 4.66390e-06
 4.67941e-06
 4.69584e-06
 4.71328e-06
 4.73185e-06
 4.75167e-06
 4.77280e-06
 4.79540e-06
 4.81958e-06
 4.84547e-06
 4.87319e-06
 4.90296e-06
 4.93477e-06
 4.96908e-06
 5.00586e-06
 5.04525e-06
 5.08767e-06
 5.13344e-06
 5.18261e-06
 5.23551e-06
 5.29250e-06
 5.35396e-06
 5.42032e-06
 5.49203e-06
 5.56953e-06
 5.65314e-06
 5.74288e-06
 5.84242e-06
 5.95010e-06
 6.06457e-06
 6.19220e-06
 6.33057e-06
 6.47689e-06
)


51
(
 1.16504e-05
 6.14815e-06
 4.85306e-06
 4.30175e-06
 4.47900e-06
 4.31034e-06
 3.41213e-06
 3.44965e-06
 3.48290e-06
 3.50144e-06
 3.50977e-06
 3.52069e-06
 3.98138e-06
 4.29944e-06
 4.32031e-06
 4.34103e-06
 4.36214e-06
 4.38376e-06
 4.40598e-06
 4.42893e-06
 4.45269e-06
 4.47737e-06
 4.50309e-06
 4.53001e-06
 4.55816e-06
 4.58776e-06
 4.61889e-06
 4.65170e-06
 4.68633e-06
 4.72303e-06
 4.76176e-06
 4.80304e-06
 4.84683e-06
 4.89329e-06
 4.94284e-06
 4.99585e-06
 5.05238e-06
 5.11276e-06
 5.17738e-06
 5.24665e-06
 5.32103e-06
 5.40100e-06
 5.48701e-06
 5.57942e-06
 5.67826e-06
 5.78739e-06
 5.90507e-06
 6.02989e-06
 6.16856e-06
 6.31854e-06
 6.47689e-06
)


51
(
 1.16504e-05
 5.97483e-06
 4.44726e-06
 3.88090e-06
 4.08287e-06
 4.04910e-06
 3.30143e-06
 3.34646e-06
 3.38372e-06
 3.41242e-06
 3.42540e-06
 3.43354e-06
 3.65944e-06
 4.00236e-06
 4.03138e-06
 4.06007e-06
 4.08899e-06
 4.11829e-06
 4.14806e-06
 4.17844e-06
 4.20954e-06
 4.24146e-06
 4.27434e-06
 4.30834e-06
 4.34353e-06
 4.38011e-06
 4.41819e-06
 4.45793e-06
 4.49948e-06
 4.54310e-06
 4.58876e-06
 4.63701e-06
 4.68780e-06
 4.74132e-06
 4.79802e-06
 4.85827e-06
 4.92214e-06
 4.99000e-06
 5.06226e-06
 5.13935e-06
 5.22175e-06
 5.30997e-06
 5.40450e-06
 5.50571e-06
 5.61364e-06
 5.73236e-06
 5.86005e-06
 5.99520e-06
 6.14492e-06
 6.30652e-06
 6.47689e-06
)


51
(
 1.16504e-05
 5.80909e-06
 4.08088e-06
 3.50337e-06
 3.72567e-06
 3.81160e-06
 3.19072e-06
 3.24326e-06
 3.28889e-06
 3.32437e-06
 3.34406e-06
 3.35833e-06
 3.36846e-06
 3.70527e-06
 3.74246e-06
 3.77911e-06
 3.81585e-06
 3.85282e-06
 3.89015e-06
 3.92796e-06
 3.96639e-06
 4.00555e-06
 4.04559e-06
 4.08668e-06
 4.12890e-06
 4.17246e-06
 4.21749e-06
 4.26416e-06
 4.31262e-06
 4.36316e-06
 4.41575e-06
 4.47097e-06
 4.52878e-06
 4.58935e-06
 4.65319e-06
 4.72068e-06
 4.79191e-06
 4.86725e-06
 4.94714e-06
 5.03204e-06
 5.12246e-06
 5.21893e-06
 5.32198e-06
 5.43200e-06
 5.54902e-06
 5.67733e-06
 5.81502e-06
 5.96052e-06
 6.12128e-06
 6.29450e-06
 6.47689e-06
)


51
(
 1.16504e-05
 5.64643e-06
 3.76045e-06
 3.17621e-06
 3.41372e-06
 3.59971e-06
 3.09556e-06
 3.02322e-06
 3.11236e-06
 3.23093e-06
 3.17457e-06
 3.23130e-06
 3.30257e-06
 3.40819e-06
 3.45353e-06
 3.49815e-06
 3.54271e-06
 3.58735e-06
 3.63223e-06
 3.67748e-06
 3.72324e-06
 3.76964e-06
 3.81684e-06
 3.86502e-06
 3.91427e-06
 3.96481e-06
 4.01679e-06
 4.07039e-06
 4.12577e-06
 4.18323e-06
 4.24275e-06
 4.30493e-06
 4.36975e-06
 4.43738e-06
 4.50837e-06
 4.58310e-06
 4.66167e-06
 4.74450e-06
 4.83202e-06
 4.92473e-06
 5.02317e-06
 5.12790e-06
 5.23947e-06
 5.35828e-06
 5.48439e-06
 5.62231e-06
 5.77000e-06
 5.92583e-06
 6.09764e-06
 6.28247e-06
 6.47689e-06
)


51
(
 1.16504e-05
 5.48786e-06
 3.49252e-06
 2.90647e-06
 3.15329e-06
 3.41532e-06
 3.00144e-06
 2.76451e-06
 2.82534e-06
 2.89546e-06
 2.92888e-06
 2.98588e-06
 3.06502e-06
 3.11150e-06
 3.16460e-06
 3.21718e-06
 3.26956e-06
 3.32189e-06
 3.37431e-06
 3.42700e-06
 3.48009e-06
 3.53372e-06
 3.58808e-06
 3.64336e-06
 3.69963e-06
 3.75717e-06
 3.81610e-06
 3.87662e-06
 3.93892e-06
 4.00330e-06
 4.06974e-06
 4.13890e-06
 4.21072e-06
 4.28542e-06
 4.36354e-06
 4.44551e-06
 4.53144e-06
 4.62174e-06
 4.71690e-06
 4.81742e-06
 4.92388e-06
 5.03687e-06
 5.15695e-06
 5.28457e-06
 5.41977e-06
 5.56728e-06
 5.72497e-06
 5.89115e-06
 6.07400e-06
 6.27045e-06
 6.47689e-06
)


51
(
 1.16504e-05
 5.33543e-06
 3.28365e-06
 2.70120e-06
 2.95070e-06
 3.26031e-06
 2.66260e-06
 2.82304e-06
 2.92247e-06
 2.95288e-06
 2.86608e-06
 2.92354e-06
 2.98025e-06
 3.03625e-06
 3.09169e-06
 3.23372e-06
 3.27912e-06
 3.32392e-06
 3.31090e-06
 3.36586e-06
 3.42118e-06
 3.47703e-06
 3.53356e-06
 3.59098e-06
 3.64938e-06
 3.70901e-06
 3.77001e-06
 3.83259e-06
 3.89692e-06
 3.96333e-06
 4.03178e-06
 4.10293e-06
 4.17673e-06
 4.25340e-06
 4.33348e-06
 4.41740e-06
 4.50527e-06
 4.59751e-06
 4.69460e-06
 4.79704e-06
 4.90541e-06
 5.02030e-06
 5.14228e-06
 5.27179e-06
 5.40886e-06
 5.55824e-06
 5.71778e-06
 5.88579e-06
 6.07045e-06
 6.26868e-06
 6.47689e-06
)


51
(
 1.16504e-05
 5.19061e-06
 3.14037e-06
 2.56746e-06
 2.81225e-06
 3.13654e-06
 2.71520e-06
 2.72844e-06
 2.78965e-06
 2.84999e-06
 2.90920e-06
 2.96734e-06
 3.07438e-06
 3.13783e-06
 3.13711e-06
 3.21389e-06
 3.25509e-06
 3.30674e-06
 3.36076e-06
 3.41575e-06
 3.47139e-06
 3.52763e-06
 3.58459e-06
 3.64242e-06
 3.70121e-06
 3.76120e-06
 3.82253e-06
 3.88539e-06
 3.94995e-06
 4.01652e-06
 4.08508e-06
 4.15625e-06
 4.22999e-06
 4.30649e-06
 4.38628e-06
 4.46977e-06
 4.55705e-06
 4.64851e-06
 4.74460e-06
 4.84580e-06
 4.95264e-06
 5.06564e-06
 5.18534e-06
 5.31212e-06
 5.44601e-06
 5.59138e-06
 5.74620e-06
 5.90885e-06
 6.08688e-06
 6.27732e-06
 6.47689e-06
)


51
(
 1.16504e-05
 5.05049e-06
 3.04686e-06
 2.48853e-06
 2.72223e-06
 3.03599e-06
 2.58160e-06
 2.66898e-06
 2.72704e-06
 2.78263e-06
 2.83832e-06
 2.94989e-06
 2.94987e-06
 3.00531e-06
 3.06048e-06
 3.18278e-06
 3.17027e-06
 3.22510e-06
 3.28004e-06
 3.33525e-06
 3.39086e-06
 3.44701e-06
 3.50387e-06
 3.56164e-06
 3.62039e-06
 3.68040e-06
 3.74178e-06
 3.80476e-06
 3.86950e-06
 3.93633e-06
 4.00521e-06
 4.07682e-06
 4.15110e-06
 4.22827e-06
 4.30888e-06
 4.39338e-06
 4.48187e-06
 4.57477e-06
 4.67258e-06
 4.77583e-06
 4.88510e-06
 5.00100e-06
 5.12411e-06
 5.25490e-06
 5.39343e-06
 5.54453e-06
 5.70608e-06
 5.87633e-06
 6.06373e-06
 6.26515e-06
 6.47689e-06
)


51
(
 1.16504e-05
 4.91038e-06
 2.95783e-06
 2.41627e-06
 2.63609e-06
 2.93820e-06
 2.44164e-06
 2.73203e-06
 2.57848e-06
 2.61511e-06
 2.66934e-06
 2.72429e-06
 2.81297e-06
 2.83384e-06
 3.09653e-06
 2.98489e-06
 3.00726e-06
 3.05319e-06
 3.10475e-06
 3.15843e-06
 3.21324e-06
 3.26890e-06
 3.32542e-06
 3.38295e-06
 3.44155e-06
 3.50149e-06
 3.56291e-06
 3.62602e-06
 3.69102e-06
 3.75826e-06
 3.82772e-06
 3.90011e-06
 3.97541e-06
 4.05385e-06
 4.13607e-06
 4.22258e-06
 4.31351e-06
 4.40937e-06
 4.51076e-06
 4.61833e-06
 4.73278e-06
 4.85488e-06
 4.98539e-06
 5.12495e-06
 5.27369e-06
 5.43757e-06
 5.61423e-06
 5.80160e-06
 6.01038e-06
 6.23706e-06
 6.47689e-06
)


51
(
 1.16504e-05
 4.78665e-06
 2.87174e-06
 2.34869e-06
 2.55240e-06
 2.84264e-06
 2.32653e-06
 2.49741e-06
 2.63212e-06
 2.79584e-06
 2.84251e-06
 2.85110e-06
 2.95603e-06
 2.98182e-06
 3.06613e-06
 3.09871e-06
 3.15521e-06
 3.21123e-06
 3.26710e-06
 3.32307e-06
 3.37936e-06
 3.43613e-06
 3.49357e-06
 3.55189e-06
 3.61118e-06
 3.67170e-06
 3.73359e-06
 3.79705e-06
 3.86228e-06
 3.92958e-06
 3.99893e-06
 4.07099e-06
 4.14572e-06
 4.22332e-06
 4.30437e-06
 4.38928e-06
 4.47817e-06
 4.57147e-06
 4.66967e-06
 4.77329e-06
 4.88291e-06
 4.99915e-06
 5.12258e-06
 5.25368e-06
 5.39248e-06
 5.54384e-06
 5.70561e-06
 5.87604e-06
 6.06358e-06
 6.26509e-06
 6.47689e-06
)


51
(
 1.16504e-05
 4.66628e-06
 2.78865e-06
 2.28549e-06
 2.47126e-06
 2.74950e-06
 2.27683e-06
 2.33273e-06
 2.39109e-06
 2.44927e-06
 2.74362e-06
 2.83211e-06
 2.91530e-06
 2.96988e-06
 3.02655e-06
 3.08210e-06
 3.13762e-06
 3.19318e-06
 3.24890e-06
 3.30487e-06
 3.36126e-06
 3.41818e-06
 3.47580e-06
 3.53433e-06
 3.59384e-06
 3.65460e-06
 3.71675e-06
 3.78048e-06
 3.84599e-06
 3.91358e-06
 3.98324e-06
 4.05563e-06
 4.13070e-06
 4.20867e-06
 4.29011e-06
 4.37544e-06
 4.46479e-06
 4.55858e-06
 4.65730e-06
 4.76150e-06
 4.87176e-06
 4.98869e-06
 5.11289e-06
 5.24481e-06
 5.38453e-06
 5.53692e-06
 5.69983e-06
 5.87149e-06
 6.06042e-06
 6.26346e-06
 6.47689e-06
)


51
(
 1.16504e-05
 4.54591e-06
 2.70861e-06
 2.22640e-06
 2.39279e-06
 2.65899e-06
 2.23079e-06
 2.28616e-06
 2.34419e-06
 2.40212e-06
 2.55616e-06
 2.62530e-06
 2.69375e-06
 2.75689e-06
 2.81685e-06
 2.87640e-06
 2.93332e-06
 2.98899e-06
 3.04426e-06
 3.09960e-06
 3.15529e-06
 3.21154e-06
 3.26854e-06
 3.32652e-06
 3.38556e-06
 3.44594e-06
 3.50780e-06
 3.57136e-06
 3.63683e-06
 3.70454e-06
 3.77449e-06
 3.84740e-06
 3.92325e-06
 4.00227e-06
 4.08513e-06
 4.17233e-06
 4.26404e-06
 4.36079e-06
 4.46319e-06
 4.57192e-06
 4.68774e-06
 4.81147e-06
 4.94392e-06
 5.08580e-06
 5.23727e-06
 5.40466e-06
 5.58562e-06
 5.77797e-06
 5.99326e-06
 6.22794e-06
 6.47689e-06
)


51
(
 1.16504e-05
 4.42554e-06
 2.63168e-06
 2.17113e-06
 2.31712e-06
 2.57127e-06
 2.18534e-06
 2.24101e-06
 2.29896e-06
 2.35672e-06
 2.41360e-06
 2.46948e-06
 2.52453e-06
 2.57890e-06
 2.63276e-06
 2.68628e-06
 2.73968e-06
 2.79318e-06
 2.84694e-06
 2.90111e-06
 2.95581e-06
 3.01120e-06
 3.06743e-06
 3.12472e-06
 3.18316e-06
 3.24302e-06
 3.30446e-06
 3.36771e-06
 3.43299e-06
 3.50067e-06
 3.57075e-06
 3.64401e-06
 3.72045e-06
 3.80033e-06
 3.88441e-06
 3.97326e-06
 4.06709e-06
 4.16654e-06
 4.27234e-06
 4.38531e-06
 4.50639e-06
 4.63658e-06
 4.77696e-06
 4.92843e-06
 5.09129e-06
 5.27334e-06
 5.47202e-06
 5.68476e-06
 5.92619e-06
 6.19242e-06
 6.47689e-06
)


51
(
 1.16504e-05
 4.32037e-06
 2.55791e-06
 2.11938e-06
 2.24436e-06
 2.48655e-06
 2.14506e-06
 2.20021e-06
 2.25784e-06
 2.31533e-06
 2.37200e-06
 2.42769e-06
 2.48258e-06
 2.53679e-06
 2.59051e-06
 2.64390e-06
 2.69716e-06
 2.75051e-06
 2.80414e-06
 2.85819e-06
 2.91280e-06
 2.96810e-06
 3.02427e-06
 3.08150e-06
 3.13990e-06
 3.19973e-06
 3.26116e-06
 3.32441e-06
 3.38971e-06
 3.45743e-06
 3.52757e-06
 3.60093e-06
 3.67749e-06
 3.75755e-06
 3.84185e-06
 3.93100e-06
 4.02522e-06
 4.12516e-06
 4.23157e-06
 4.34532e-06
 4.46736e-06
 4.59877e-06
 4.74065e-06
 4.89398e-06
 5.05910e-06
 5.24415e-06
 5.44653e-06
 5.66363e-06
 5.91083e-06
 6.18422e-06
 6.47689e-06
)


51
(
 1.16504e-05
 4.21921e-06
 2.48736e-06
 2.07088e-06
 2.17463e-06
 2.40502e-06
 2.10477e-06
 2.15942e-06
 2.21687e-06
 2.27417e-06
 2.33063e-06
 2.38614e-06
 2.44086e-06
 2.49492e-06
 2.54850e-06
 2.60176e-06
 2.65489e-06
 2.70808e-06
 2.76157e-06
 2.81551e-06
 2.87001e-06
 2.92523e-06
 2.98133e-06
 3.03851e-06
 3.09686e-06
 3.15666e-06
 3.21808e-06
 3.28133e-06
 3.34664e-06
 3.41440e-06
 3.48460e-06
 3.55805e-06
 3.63474e-06
 3.71497e-06
 3.79950e-06
 3.88895e-06
 3.98354e-06
 4.08396e-06
 4.19098e-06
 4.30549e-06
 4.42849e-06
 4.56110e-06
 4.70448e-06
 4.85967e-06
 5.02703e-06
 5.21505e-06
 5.42113e-06
 5.64256e-06
 5.89551e-06
 6.17604e-06
 6.47689e-06
)


51
(
 1.16504e-05
 4.11805e-06
 2.42008e-06
 2.02533e-06
 2.10806e-06
 2.32687e-06
 2.06778e-06
 2.12253e-06
 2.17967e-06
 2.23671e-06
 2.29295e-06
 2.34827e-06
 2.40281e-06
 2.45671e-06
 2.51014e-06
 2.56327e-06
 2.61627e-06
 2.66932e-06
 2.72266e-06
 2.77646e-06
 2.83085e-06
 2.88597e-06
 2.94198e-06
 2.99909e-06
 3.05738e-06
 3.11713e-06
 3.17850e-06
 3.24173e-06
 3.30703e-06
 3.37480e-06
 3.44502e-06
 3.51852e-06
 3.59529e-06
 3.67564e-06
 3.76033e-06
 3.85000e-06
 3.94490e-06
 4.04571e-06
 4.15322e-06
 4.26837e-06
 4.39219e-06
 4.52584e-06
 4.67055e-06
 4.82738e-06
 4.99676e-06
 5.18749e-06
 5.39698e-06
 5.62244e-06
 5.88082e-06
 6.16818e-06
 6.47689e-06
)


51
(
 1.16504e-05
 4.03001e-06
 2.35613e-06
 1.98245e-06
 2.04476e-06
 2.25228e-06
 2.03223e-06
 2.08688e-06
 2.14381e-06
 2.20062e-06
 2.25666e-06
 2.31178e-06
 2.36614e-06
 2.41989e-06
 2.47317e-06
 2.52616e-06
 2.57903e-06
 2.63195e-06
 2.68513e-06
 2.73879e-06
 2.79306e-06
 2.84807e-06
 2.90399e-06
 2.96102e-06
 3.01923e-06
 3.07893e-06
 3.14025e-06
 3.20344e-06
 3.26873e-06
 3.33649e-06
 3.40672e-06
 3.48026e-06
 3.55710e-06
 3.63754e-06
 3.72238e-06
 3.81225e-06
 3.90742e-06
 4.00858e-06
 4.11656e-06
 4.23230e-06
 4.35689e-06
 4.49152e-06
 4.63747e-06
 4.79588e-06
 4.96718e-06
 5.16053e-06
 5.37332e-06
 5.60270e-06
 5.86638e-06
 6.16045e-06
 6.47689e-06
)


51
(
 1.16504e-05
 3.94296e-06
 2.29556e-06
 1.94195e-06
 1.98485e-06
 2.18145e-06
 1.99865e-06
 2.05319e-06
 2.10991e-06
 2.16650e-06
 2.22232e-06
 2.27724e-06
 2.33143e-06
 2.38501e-06
 2.43814e-06
 2.49099e-06
 2.54372e-06
 2.59651e-06
 2.64955e-06
 2.70306e-06
 2.75720e-06
 2.81209e-06
 2.86791e-06
 2.92485e-06
 2.98299e-06
 3.04261e-06
 3.10388e-06
 3.16703e-06
 3.23228e-06
 3.30002e-06
 3.37024e-06
 3.44380e-06
 3.52068e-06
 3.60120e-06
 3.68615e-06
 3.77619e-06
 3.87158e-06
 3.97305e-06
 4.08144e-06
 4.19772e-06
 4.32300e-06
 4.45854e-06
 4.60564e-06
 4.76551e-06
 4.93862e-06
 5.13444e-06
 5.35038e-06
 5.58350e-06
 5.85230e-06
 6.15289e-06
 6.47689e-06
)


51
(
 1.16504e-05
 3.85591e-06
 2.23843e-06
 1.90354e-06
 1.92846e-06
 2.11457e-06
 1.96677e-06
 2.02089e-06
 2.07729e-06
 2.13362e-06
 2.18922e-06
 2.24395e-06
 2.29796e-06
 2.35137e-06
 2.40435e-06
 2.45706e-06
 2.50966e-06
 2.56232e-06
 2.61522e-06
 2.66858e-06
 2.72258e-06
 2.77735e-06
 2.83306e-06
 2.88991e-06
 2.94796e-06
 3.00751e-06
 3.06872e-06
 3.13181e-06
 3.19702e-06
 3.26473e-06
 3.33494e-06
 3.40850e-06
 3.48541e-06
 3.56599e-06
 3.65103e-06
 3.74122e-06
 3.83682e-06
 3.93857e-06
 4.04733e-06
 4.16410e-06
 4.29004e-06
 4.42642e-06
 4.57461e-06
 4.73587e-06
 4.91072e-06
 5.10892e-06
 5.32789e-06
 5.56466e-06
 5.83846e-06
 6.14545e-06
 6.47689e-06
)


51
(
 1.16504e-05
 3.78088e-06
 2.18480e-06
 1.86695e-06
 1.87569e-06
 2.05182e-06
 1.93629e-06
 1.99033e-06
 2.04654e-06
 2.10265e-06
 2.15804e-06
 2.21257e-06
 2.26640e-06
 2.31965e-06
 2.37247e-06
 2.42503e-06
 2.47750e-06
 2.53003e-06
 2.58280e-06
 2.63601e-06
 2.68986e-06
 2.74451e-06
 2.80010e-06
 2.85684e-06
 2.91480e-06
 2.97427e-06
 3.03540e-06
 3.09843e-06
 3.16358e-06
 3.23125e-06
 3.30144e-06
 3.37499e-06
 3.45191e-06
 3.53252e-06
 3.61763e-06
 3.70793e-06
 3.80370e-06
 3.90569e-06
 4.01477e-06
 4.13199e-06
 4.25850e-06
 4.39565e-06
 4.54485e-06
 4.70739e-06
 4.88385e-06
 5.08429e-06
 5.30615e-06
 5.54639e-06
 5.82500e-06
 6.13821e-06
 6.47689e-06
)


51
(
 1.16504e-05
 3.70649e-06
 2.13471e-06
 1.83187e-06
 1.82668e-06
 1.99341e-06
 1.90487e-06
 1.95807e-06
 2.01382e-06
 2.06961e-06
 2.12474e-06
 2.17907e-06
 2.23270e-06
 2.28575e-06
 2.33840e-06
 2.39080e-06
 2.44312e-06
 2.49551e-06
 2.54814e-06
 2.60118e-06
 2.65486e-06
 2.70937e-06
 2.76484e-06
 2.82144e-06
 2.87931e-06
 2.93867e-06
 2.99971e-06
 3.06266e-06
 3.12777e-06
 3.19536e-06
 3.26560e-06
 3.33902e-06
 3.41593e-06
 3.49669e-06
 3.58184e-06
 3.67215e-06
 3.76808e-06
 3.87013e-06
 3.97938e-06
 4.09711e-06
 4.22404e-06
 4.36158e-06
 4.51224e-06
 4.67713e-06
 4.85723e-06
 5.05628e-06
 5.28234e-06
 5.53036e-06
 5.80869e-06
 6.13288e-06
 6.47689e-06
)


51
(
 1.16504e-05
 3.63210e-06
 2.08823e-06
 1.79803e-06
 1.78153e-06
 1.93952e-06
 1.87344e-06
 1.92720e-06
 1.98294e-06
 2.03856e-06
 2.09347e-06
 2.14760e-06
 2.20103e-06
 2.25390e-06
 2.30637e-06
 2.35861e-06
 2.41078e-06
 2.46303e-06
 2.51552e-06
 2.56841e-06
 2.62192e-06
 2.67629e-06
 2.73163e-06
 2.78810e-06
 2.84587e-06
 2.90512e-06
 2.96606e-06
 3.02893e-06
 3.09398e-06
 3.16149e-06
 3.23177e-06
 3.30508e-06
 3.38196e-06
 3.46282e-06
 3.54800e-06
 3.63833e-06
 3.73439e-06
 3.83652e-06
 3.94595e-06
 4.06413e-06
 4.19147e-06
 4.32944e-06
 4.48138e-06
 4.64824e-06
 4.83140e-06
 5.02985e-06
 5.25965e-06
 5.51428e-06
 5.79340e-06
 6.12727e-06
 6.47689e-06
)


51
(
 1.16504e-05
 3.56507e-06
 2.04542e-06
 1.76514e-06
 1.74038e-06
 1.89034e-06
 1.84698e-06
 1.90068e-06
 1.95624e-06
 2.01165e-06
 2.06637e-06
 2.12031e-06
 2.17356e-06
 2.22627e-06
 2.27859e-06
 2.33068e-06
 2.38271e-06
 2.43483e-06
 2.48719e-06
 2.53995e-06
 2.59332e-06
 2.64755e-06
 2.70276e-06
 2.75911e-06
 2.81677e-06
 2.87592e-06
 2.93677e-06
 2.99956e-06
 3.06453e-06
 3.13198e-06
 3.20219e-06
 3.27546e-06
 3.35231e-06
 3.43317e-06
 3.51836e-06
 3.60875e-06
 3.70490e-06
 3.80719e-06
 3.91683e-06
 4.03534e-06
 4.16311e-06
 4.30166e-06
 4.45442e-06
 4.62238e-06
 4.80697e-06
 5.00720e-06
 5.23957e-06
 5.49753e-06
 5.78071e-06
 6.12064e-06
 6.47689e-06
)


51
(
 1.16504e-05
 3.50089e-06
 2.00632e-06
 1.73290e-06
 1.70334e-06
 1.84606e-06
 1.82162e-06
 1.87525e-06
 1.93063e-06
 1.98583e-06
 2.04035e-06
 2.09411e-06
 2.14719e-06
 2.19974e-06
 2.25191e-06
 2.30386e-06
 2.35575e-06
 2.40774e-06
 2.45997e-06
 2.51261e-06
 2.56584e-06
 2.61992e-06
 2.67500e-06
 2.73122e-06
 2.78877e-06
 2.84782e-06
 2.90858e-06
 2.97127e-06
 3.03617e-06
 3.10354e-06
 3.17370e-06
 3.24691e-06
 3.32373e-06
 3.40457e-06
 3.48977e-06
 3.58019e-06
 3.67642e-06
 3.77884e-06
 3.88868e-06
 4.00747e-06
 4.13564e-06
 4.27475e-06
 4.42826e-06
 4.59726e-06
 4.78322e-06
 4.98514e-06
 5.21999e-06
 5.48116e-06
 5.76829e-06
 6.11415e-06
 6.47689e-06
)


51
(
 1.16504e-05
 3.44052e-06
 1.97099e-06
 1.70104e-06
 1.67053e-06
 1.80687e-06
 1.79732e-06
 1.85088e-06
 1.90611e-06
 1.96113e-06
 2.01546e-06
 2.06904e-06
 2.12196e-06
 2.17435e-06
 2.22637e-06
 2.27818e-06
 2.32994e-06
 2.38179e-06
 2.43390e-06
 2.48642e-06
 2.53951e-06
 2.59345e-06
 2.64839e-06
 2.70449e-06
 2.76192e-06
 2.82087e-06
 2.88153e-06
 2.94413e-06
 3.00894e-06
 3.07624e-06
 3.14633e-06
 3.21949e-06
 3.29626e-06
 3.37707e-06
 3.46226e-06
 3.55271e-06
 3.64901e-06
 3.75153e-06
 3.86154e-06
 3.98060e-06
 4.10913e-06
 4.24874e-06
 4.40297e-06
 4.57293e-06
 4.76018e-06
 4.96372e-06
 5.20095e-06
 5.46522e-06
 5.75617e-06
 6.10780e-06
 6.47689e-06
)


51
(
 1.16504e-05
 3.39668e-06
 1.93949e-06
 1.66927e-06
 1.64206e-06
 1.77296e-06
 1.77399e-06
 1.82761e-06
 1.88270e-06
 1.93755e-06
 1.99171e-06
 2.04512e-06
 2.09788e-06
 2.15012e-06
 2.20200e-06
 2.25367e-06
 2.30530e-06
 2.35703e-06
 2.40901e-06
 2.46141e-06
 2.51439e-06
 2.56817e-06
 2.62298e-06