/*--------------------------------*- C++ -*----------------------------------*\
| =========                 |                                                 |
| \      /  F ield          | OpenFOAM: The Open Source CFD Toolbox           |
|  \    /   O peration      | Version:  7                                     |
|   \  /    A nd            | Web:      http://www.OpenFOAM.com               |
|    \/     M anipulation   |                                                 |
\*---------------------------------------------------------------------------*/
FoamFile 
{   version     2.0;
    format      ascii;
    class       dictionary;
    location    "constant";
    object      LDMtable;
}
// * * * * * * * * * * * * * * * * * * * * * * * * * * * * * * * * * * * * * //

PVmax_table
51
(
 5.78283e-61
 3.71728e-03
 9.30965e-03
 1.08770e-02
 1.27922e-02
 1.37216e-02
 1.12335e-02
 1.10339e-02
 1.07952e-02
 1.05439e-02
 1.02886e-02
 1.00321e-02
 9.77507e-03
 9.51792e-03
 9.26071e-03
 9.00347e-03
 8.74623e-03
 8.48898e-03
 8.23174e-03
 7.97449e-03
 7.71724e-03
 7.46000e-03
 7.20275e-03
 6.94551e-03
 6.68827e-03
 6.43102e-03
 6.17378e-03
 5.91654e-03
 5.65930e-03
 5.40205e-03
 5.14481e-03
 4.88757e-03
 4.63033e-03
 4.37309e-03
 4.11585e-03
 3.85861e-03
 3.60137e-03
 3.34413e-03
 3.08689e-03
 2.82965e-03
 2.57241e-03
 2.31517e-03
 2.05792e-03
 1.80068e-03
 1.54344e-03
 1.28620e-03
 1.02896e-03
 7.71722e-04
 5.14481e-04
 2.57241e-04
 5.78283e-61
)


;