/*--------------------------------*- C++ -*----------------------------------*\
| =========                 |                                                 |
| \      /  F ield          | OpenFOAM: The Open Source CFD Toolbox           |
|  \    /   O peration      | Version:  7                                     |
|   \  /    A nd            | Web:      http://www.OpenFOAM.com               |
|    \/     M anipulation   |                                                 |
\*---------------------------------------------------------------------------*/
FoamFile 
{   version     2.0;
    format      ascii;
    class       dictionary;
    location    "constant";
    object      LDMtable;
}
// * * * * * * * * * * * * * * * * * * * * * * * * * * * * * * * * * * * * * //

PVmin_table
51
(
 5.78283e-61
 1.93043e-31
 6.95639e-31
 1.36633e-31
 2.09059e-19
 7.82643e-17
 1.13071e-30
 1.31323e-30
 1.50414e-30
 1.70887e-30
 1.90212e-30
 2.07206e-30
 2.13774e-30
 2.17898e-30
 2.19897e-30
 2.19929e-30
 2.19896e-30
 2.19117e-30
 2.18250e-30
 2.15372e-30
 2.10974e-30
 2.06694e-30
 2.02266e-30
 1.96548e-30
 1.89643e-30
 1.82665e-30
 1.75392e-30
 1.68276e-30
 1.61260e-30
 1.54205e-30
 1.47639e-30
 1.41328e-30
 1.34686e-30
 1.27802e-30
 1.20895e-30
 1.13902e-30
 1.06723e-30
 9.94452e-31
 9.20421e-31
 8.44730e-31
 7.68681e-31
 6.92000e-31
 6.15453e-31
 5.38664e-31
 4.61752e-31
 3.84775e-31
 3.07889e-31
 2.31053e-31
 1.54251e-31
 7.74363e-32
 5.78283e-61
)


;