/*--------------------------------*- C++ -*----------------------------------*\
| =========                 |                                                 |
| \      /  F ield          | OpenFOAM: The Open Source CFD Toolbox           |
|  \    /   O peration      | Version:  7                                     |
|   \  /    A nd            | Web:      http://www.OpenFOAM.com               |
|    \/     M anipulation   |                                                 |
\*---------------------------------------------------------------------------*/
FoamFile 
{   version     2.0;
    format      ascii;
    class       dictionary;
    location    "constant";
    object      LDMtable;
}
// * * * * * * * * * * * * * * * * * * * * * * * * * * * * * * * * * * * * * //

rho_table
51
(

51
(
 1.18048e+00
 1.16214e+00
 1.15962e+00
 1.14103e+00
 1.12380e+00
 1.10777e+00
 1.07724e+00
 1.06176e+00
 1.04671e+00
 1.03209e+00
 1.01787e+00
 1.00404e+00
 9.90584e-01
 9.77479e-01
 9.64716e-01
 9.52286e-01
 9.40169e-01
 9.28358e-01
 9.16837e-01
 9.05603e-01
 8.94639e-01
 8.83936e-01
 8.73486e-01
 8.63282e-01
 8.53314e-01
 8.43572e-01
 8.34051e-01
 8.24741e-01
 8.15637e-01
 8.06733e-01
 7.98021e-01
 7.89495e-01
 7.81149e-01
 7.72978e-01
 7.64975e-01
 7.57138e-01
 7.49459e-01
 7.41934e-01
 7.34559e-01
 7.27329e-01
 7.20240e-01
 7.13286e-01
 7.06469e-01
 6.99778e-01
 6.93213e-01
 6.86771e-01
 6.80449e-01
 6.74240e-01
 6.68143e-01
 6.62157e-01
 6.56271e-01
)


51
(
 1.18048e+00
 1.11249e+00
 1.15879e+00
 1.14017e+00
 1.12114e+00
 1.07039e+00
 1.01080e+00
 1.00371e+00
 9.95720e-01
 9.87015e-01
 9.77761e-01
 9.68083e-01
 9.57964e-01
 9.47377e-01
 9.35440e-01
 9.23818e-01
 9.12492e-01
 9.01459e-01
 8.90703e-01
 8.80222e-01
 8.70001e-01
 8.60032e-01
 8.50308e-01
 8.40822e-01
 8.31566e-01
 8.22533e-01
 8.13715e-01
 8.05108e-01
 7.96704e-01
 7.88501e-01
 7.80492e-01
 7.72671e-01
 7.65035e-01
 7.57580e-01
 7.50301e-01
 7.43197e-01
 7.36263e-01
 7.29496e-01
 7.22894e-01
 7.16456e-01
 7.10179e-01
 7.04062e-01
 6.98108e-01
 6.92309e-01
 6.86665e-01
 6.81195e-01
 6.75887e-01
 6.70725e-01
 6.65748e-01
 6.60939e-01
 6.56271e-01
)


51
(
 1.18048e+00
 1.06283e+00
 1.15130e+00
 1.13220e+00
 1.11161e+00
 1.03214e+00
 9.44362e-01
 9.45665e-01
 9.44729e-01
 9.41936e-01
 9.37651e-01
 9.32121e-01
 9.25343e-01
 9.17275e-01
 9.06165e-01
 8.95349e-01
 8.84816e-01
 8.74561e-01
 8.64570e-01
 8.54842e-01
 8.45364e-01
 8.36129e-01
 8.27129e-01
 8.18362e-01
 8.09818e-01
 8.01493e-01
 7.93380e-01
 7.85474e-01
 7.77771e-01
 7.70270e-01
 7.62962e-01
 7.55847e-01
 7.48922e-01
 7.42182e-01
 7.35626e-01
 7.29256e-01
 7.23067e-01
 7.17058e-01
 7.11230e-01
 7.05583e-01
 7.00119e-01
 6.94838e-01
 6.89747e-01
 6.84840e-01
 6.80117e-01
 6.75619e-01
 6.71325e-01
 6.67211e-01
 6.63352e-01
 6.59720e-01
 6.56271e-01
)


51
(
 1.18048e+00
 1.01318e+00
 1.13652e+00
 1.11648e+00
 1.09518e+00
 9.93061e-01
 8.77924e-01
 8.87618e-01
 8.93738e-01
 8.96858e-01
 8.97541e-01
 8.96159e-01
 8.92723e-01
 8.87173e-01
 8.76889e-01
 8.66881e-01
 8.57139e-01
 8.47662e-01
 8.38437e-01
 8.29462e-01
 8.20727e-01
 8.12225e-01
 8.03951e-01
 7.95902e-01
 7.88071e-01
 7.80453e-01
 7.73044e-01
 7.65840e-01
 7.58838e-01
 7.52038e-01
 7.45432e-01
 7.39024e-01
 7.32808e-01
 7.26784e-01
 7.20952e-01
 7.15315e-01
 7.09871e-01
 7.04620e-01
 6.99565e-01
 6.94710e-01
 6.90059e-01
 6.85614e-01
 6.81386e-01
 6.77371e-01
 6.73569e-01
 6.70043e-01
 6.66763e-01
 6.63696e-01
 6.60957e-01
 6.58502e-01
 6.56271e-01
)


51
(
 1.18048e+00
 9.63520e-01
 1.11512e+00
 1.09372e+00
 1.07247e+00
 9.53343e-01
 8.11485e-01
 8.29572e-01
 8.42746e-01
 8.51779e-01
 8.57430e-01
 8.60198e-01
 8.60102e-01
 8.57071e-01
 8.47614e-01
 8.38413e-01
 8.29463e-01
 8.20764e-01
 8.12303e-01
 8.04082e-01
 7.96090e-01
 7.88321e-01
 7.80773e-01
 7.73442e-01
 7.66323e-01
 7.59413e-01
 7.52708e-01
 7.46206e-01
 7.39905e-01
 7.33806e-01
 7.27902e-01
 7.22200e-01
 7.16694e-01
 7.11386e-01
 7.06277e-01
 7.01375e-01
 6.96675e-01
 6.92182e-01
 6.87901e-01
 6.83837e-01
 6.79998e-01
 6.76390e-01
 6.73025e-01
 6.69902e-01
 6.67021e-01
 6.64468e-01
 6.62200e-01
 6.60182e-01
 6.58562e-01
 6.57283e-01
 6.56271e-01
)


51
(
 1.18048e+00
 9.25368e-01
 1.08776e+00
 1.06464e+00
 1.04414e+00
 9.13176e-01
 7.45047e-01
 7.71525e-01
 7.91755e-01
 8.06700e-01
 8.17320e-01
 8.24236e-01
 8.27481e-01
 8.26969e-01
 8.18338e-01
 8.09944e-01
 8.01787e-01
 7.93865e-01
 7.86170e-01
 7.78702e-01
 7.71453e-01
 7.64418e-01
 7.57594e-01
 7.50982e-01
 7.44575e-01
 7.38373e-01
 7.32372e-01
 7.26572e-01
 7.20972e-01
 7.15574e-01
 7.10373e-01
 7.05376e-01
 7.00581e-01
 6.95988e-01
 6.91602e-01
 6.87434e-01
 6.83479e-01
 6.79744e-01
 6.76236e-01
 6.72964e-01
 6.69938e-01
 6.67166e-01
 6.64664e-01
 6.62433e-01
 6.60473e-01
 6.58892e-01
 6.57638e-01
 6.56667e-01
 6.56167e-01
 6.56065e-01
 6.56271e-01
)


51
(
 1.18048e+00
 8.96866e-01
 1.05511e+00
 1.02994e+00
 1.01081e+00
 8.72751e-01
 6.78608e-01
 7.13479e-01
 7.40764e-01
 7.61621e-01
 7.77210e-01
 7.88274e-01
 7.94861e-01
 7.96867e-01
 7.89063e-01
 7.81476e-01
 7.74110e-01
 7.66967e-01
 7.60037e-01
 7.53322e-01
 7.46815e-01
 7.40514e-01
 7.34416e-01
 7.28522e-01
 7.22828e-01
 7.17333e-01
 7.12037e-01
 7.06939e-01
 7.02039e-01
 6.97342e-01
 6.92843e-01
 6.88553e-01
 6.84467e-01
 6.80589e-01
 6.76928e-01
 6.73493e-01
 6.70283e-01
 6.67306e-01
 6.64572e-01
 6.62092e-01
 6.59878e-01
 6.57942e-01
 6.56303e-01
 6.54964e-01
 6.53925e-01
 6.53316e-01
 6.53076e-01
 6.53153e-01
 6.53772e-01
 6.54847e-01
 6.56271e-01
)


51
(
 1.18048e+00
 8.68581e-01
 1.01782e+00
 9.90342e-01
 9.73131e-01
 8.32257e-01
 6.12169e-01
 6.55432e-01
 6.89773e-01
 7.16543e-01
 7.37099e-01
 7.52312e-01
 7.62240e-01
 7.66765e-01
 7.59787e-01
 7.53007e-01
 7.46434e-01
 7.40068e-01
 7.33903e-01
 7.27942e-01
 7.22178e-01
 7.16610e-01
 7.11238e-01
 7.06062e-01
 7.01080e-01
 6.96293e-01
 6.91701e-01
 6.87305e-01
 6.83106e-01
 6.79111e-01
 6.75313e-01
 6.71729e-01
 6.68354e-01
 6.65191e-01
 6.62253e-01
 6.59553e-01
 6.57087e-01
 6.54868e-01
 6.52907e-01
 6.51219e-01
 6.49817e-01
 6.48719e-01
 6.47942e-01
 6.47495e-01
 6.47377e-01
 6.47740e-01
 6.48514e-01
 6.49638e-01
 6.51376e-01
 6.53628e-01
 6.56271e-01
)


51
(
 1.18048e+00
 8.41041e-01
 9.76568e-01
 9.46563e-01
 9.31734e-01
 7.91886e-01
 5.45731e-01
 5.97386e-01
 6.38782e-01
 6.71464e-01
 6.96989e-01
 7.16351e-01
 7.29619e-01
 7.36662e-01
 7.30511e-01
 7.24539e-01
 7.18758e-01
 7.13170e-01
 7.07770e-01
 7.02562e-01
 6.97541e-01
 6.92706e-01
 6.88059e-01
 6.83602e-01
 6.79332e-01
 6.75253e-01
 6.71365e-01
 6.67671e-01
 6.64173e-01
 6.60879e-01
 6.57783e-01
 6.54905e-01
 6.52240e-01
 6.49793e-01
 6.47579e-01
 6.45612e-01
 6.43891e-01
 6.42430e-01
 6.41243e-01
 6.40346e-01
 6.39757e-01
 6.39495e-01
 6.39581e-01
 6.40026e-01
 6.40829e-01
 6.42165e-01
 6.43952e-01
 6.46124e-01
 6.48981e-01
 6.52410e-01
 6.56271e-01
)


51
(
 1.18048e+00
 8.14539e-01
 9.32010e-01
 8.99316e-01
 8.87259e-01
 7.51827e-01
 4.86445e-01
 5.39339e-01
 5.87790e-01
 6.26385e-01
 6.56878e-01
 6.80389e-01
 6.96999e-01
 7.06560e-01
 7.01236e-01
 6.96071e-01
 6.91081e-01
 6.86271e-01
 6.81636e-01
 6.77182e-01
 6.72904e-01
 6.68803e-01
 6.64881e-01
 6.61142e-01
 6.57585e-01
 6.54213e-01
 6.51030e-01
 6.48037e-01
 6.45240e-01
 6.42647e-01
 6.40253e-01
 6.38082e-01
 6.36127e-01
 6.34395e-01
 6.32904e-01
 6.31671e-01
 6.30695e-01
 6.29992e-01
 6.29578e-01
 6.29473e-01
 6.29697e-01
 6.30271e-01
 6.31220e-01
 6.32557e-01
 6.34281e-01
 6.36589e-01
 6.39390e-01
 6.42609e-01
 6.46586e-01
 6.51192e-01
 6.56271e-01
)


51
(
 1.18048e+00
 7.89014e-01
 8.84810e-01
 8.49314e-01
 8.40345e-01
 7.12270e-01
 4.66755e-01
 4.81293e-01
 5.36799e-01
 5.81307e-01
 6.16768e-01
 6.44427e-01
 6.64378e-01
 6.76458e-01
 6.71960e-01
 6.67602e-01
 6.63405e-01
 6.59373e-01
 6.55503e-01
 6.51802e-01
 6.48266e-01
 6.44899e-01
 6.41703e-01
 6.38682e-01
 6.35837e-01
 6.33174e-01
 6.30694e-01
 6.28404e-01
 6.26307e-01
 6.24415e-01
 6.22724e-01
 6.21258e-01
 6.20013e-01
 6.18997e-01
 6.18230e-01
 6.17730e-01
 6.17500e-01
 6.17554e-01
 6.17914e-01
 6.18600e-01
 6.19636e-01
 6.21047e-01
 6.22859e-01
 6.25087e-01
 6.27733e-01
 6.31013e-01
 6.34828e-01
 6.39095e-01
 6.44191e-01
 6.49973e-01
 6.56271e-01
)


51
(
 1.18048e+00
 7.64887e-01
 8.35632e-01
 7.97273e-01
 7.91630e-01
 6.73406e-01
 4.48259e-01
 4.43897e-01
 4.85808e-01
 5.36228e-01
 5.76658e-01
 6.08466e-01
 6.31757e-01
 6.46356e-01
 6.42685e-01
 6.39134e-01
 6.35728e-01
 6.32474e-01
 6.29370e-01
 6.26422e-01
 6.23629e-01
 6.20995e-01
 6.18524e-01
 6.16222e-01
 6.14089e-01
 6.12134e-01
 6.10358e-01
 6.08770e-01
 6.07374e-01
 6.06184e-01
 6.05194e-01
 6.04434e-01
 6.03900e-01
 6.03599e-01
 6.03555e-01
 6.03790e-01
 6.04304e-01
 6.05116e-01
 6.06249e-01
 6.07727e-01
 6.09576e-01
 6.11823e-01
 6.14498e-01
 6.17618e-01
 6.21185e-01
 6.25437e-01
 6.30266e-01
 6.35580e-01
 6.41796e-01
 6.48755e-01
 6.56271e-01
)


51
(
 1.18048e+00
 7.42097e-01
 7.85140e-01
 7.43906e-01
 7.41753e-01
 6.35426e-01
 4.30961e-01
 4.28149e-01
 4.34817e-01
 4.91149e-01
 5.36547e-01
 5.72504e-01
 5.99137e-01
 6.16254e-01
 6.13409e-01
 6.10665e-01
 6.08052e-01
 6.05575e-01
 6.03236e-01
 6.01041e-01
 5.98992e-01
 5.97092e-01
 5.95346e-01
 5.93762e-01
 5.92342e-01
 5.91094e-01
 5.90023e-01
 5.89136e-01
 5.88441e-01
 5.87952e-01
 5.87664e-01
 5.87611e-01
 5.87786e-01
 5.88201e-01
 5.88881e-01
 5.89849e-01
 5.91108e-01
 5.92678e-01
 5.94585e-01
 5.96854e-01
 5.99516e-01
 6.02599e-01
 6.06137e-01
 6.10149e-01
 6.14637e-01
 6.19862e-01
 6.25704e-01
 6.32066e-01
 6.39400e-01
 6.47537e-01
 6.56271e-01
)


51
(
 1.18048e+00
 7.19933e-01
 7.33997e-01
 6.89928e-01
 6.91352e-01
 5.98519e-01
 4.14189e-01
 4.13353e-01
 4.11258e-01
 4.46070e-01
 4.96437e-01
 5.36542e-01
 5.66516e-01
 5.86152e-01
 5.84133e-01
 5.82197e-01
 5.80376e-01
 5.78677e-01
 5.77103e-01
 5.75661e-01
 5.74355e-01
 5.73188e-01
 5.72168e-01
 5.71303e-01
 5.70594e-01
 5.70054e-01
 5.69687e-01
 5.69502e-01
 5.69508e-01
 5.69720e-01
 5.70134e-01
 5.70787e-01
 5.71673e-01
 5.72803e-01
 5.74206e-01
 5.75908e-01
 5.77912e-01
 5.80240e-01
 5.82920e-01
 5.85981e-01
 5.89455e-01
 5.93375e-01
 5.97776e-01
 6.02680e-01
 6.08090e-01
 6.14286e-01
 6.21142e-01
 6.28551e-01
 6.37005e-01
 6.46318e-01
 6.56271e-01
)


51
(
 1.18048e+00
 6.99364e-01
 6.82866e-01
 6.36053e-01
 6.41066e-01
 5.62876e-01
 3.98709e-01
 3.99353e-01
 3.98406e-01
 4.00992e-01
 4.56326e-01
 5.00581e-01
 5.33896e-01
 5.56050e-01
 5.54858e-01
 5.53728e-01
 5.52699e-01
 5.51778e-01
 5.50969e-01
 5.50281e-01
 5.49718e-01
 5.49284e-01
 5.48989e-01
 5.48843e-01
 5.48846e-01
 5.49014e-01
 5.49351e-01
 5.49868e-01
 5.50575e-01
 5.51488e-01
 5.52605e-01
 5.53963e-01
 5.55559e-01
 5.57405e-01
 5.59532e-01
 5.61967e-01
 5.64716e-01
 5.67802e-01
 5.71256e-01
 5.75109e-01
 5.79395e-01
 5.84152e-01
 5.89415e-01
 5.95211e-01
 6.01542e-01
 6.08710e-01
 6.16580e-01
 6.25037e-01
 6.34610e-01
 6.45100e-01
 6.56271e-01
)


51
(
 1.18048e+00
 6.79211e-01
 6.32411e-01
 5.82996e-01
 5.91533e-01
 5.28686e-01
 3.83789e-01
 3.85969e-01
 3.86299e-01
 3.85456e-01
 4.16216e-01
 4.64619e-01
 5.01275e-01
 5.25947e-01
 5.25582e-01
 5.25260e-01
 5.25023e-01
 5.24880e-01
 5.24836e-01
 5.24901e-01
 5.25080e-01
 5.25381e-01
 5.25811e-01
 5.26383e-01
 5.27099e-01
 5.27974e-01
 5.29016e-01
 5.30235e-01
 5.31642e-01
 5.33256e-01
 5.35075e-01
 5.37139e-01
 5.39446e-01
 5.42007e-01
 5.44857e-01
 5.48027e-01
 5.51520e-01
 5.55364e-01
 5.59591e-01
 5.64236e-01
 5.69335e-01
 5.74928e-01
 5.81054e-01
 5.87742e-01
 5.94994e-01
 6.03135e-01
 6.12018e-01
 6.21522e-01
 6.32215e-01
 6.43882e-01
 6.56271e-01
)


51
(
 1.18048e+00
 6.59551e-01
 5.83295e-01
 5.31472e-01
 5.43391e-01
 4.96141e-01
 3.70506e-01
 3.72971e-01
 3.74619e-01
 3.74777e-01
 3.76106e-01
 4.28657e-01
 4.68654e-01
 4.95845e-01
 4.96307e-01
 4.96792e-01
 4.97347e-01
 4.97981e-01
 4.98703e-01
 4.99521e-01
 5.00443e-01
 5.01477e-01
 5.02633e-01
 5.03923e-01
 5.05351e-01
 5.06934e-01
 5.08680e-01
 5.10601e-01
 5.12709e-01
 5.15025e-01
 5.17545e-01
 5.20316e-01
 5.23332e-01
 5.26608e-01
 5.30183e-01
 5.34086e-01
 5.38324e-01
 5.42926e-01
 5.47927e-01
 5.53363e-01
 5.59275e-01
 5.65704e-01
 5.72694e-01
 5.80273e-01
 5.88446e-01
 5.97559e-01
 6.07456e-01
 6.18008e-01
 6.29820e-01
 6.42663e-01
 6.56271e-01
)


51
(
 1.18048e+00
 6.40934e-01
 5.36183e-01
 4.82193e-01
 4.97278e-01
 4.65431e-01
 3.57222e-01
 3.61044e-01
 3.63762e-01
 3.64673e-01
 3.64621e-01
 3.92695e-01
 4.36034e-01
 4.65743e-01
 4.67031e-01
 4.68323e-01
 4.69670e-01
 4.71083e-01
 4.72569e-01
 4.74141e-01
 4.75806e-01
 4.77573e-01
 4.79454e-01
 4.81463e-01
 4.83604e-01
 4.85894e-01
 4.88344e-01
 4.90967e-01
 4.93776e-01
 4.96793e-01
 5.00015e-01
 5.03492e-01
 5.07219e-01
 5.11210e-01
 5.15508e-01
 5.20145e-01
 5.25128e-01
 5.30488e-01
 5.36262e-01
 5.42490e-01
 5.49214e-01
 5.56480e-01
 5.64333e-01
 5.72804e-01
 5.81898e-01
 5.91983e-01
 6.02893e-01
 6.14493e-01
 6.27424e-01
 6.41445e-01
 6.56271e-01
)


51
(
 1.18048e+00
 6.22962e-01
 4.91736e-01
 4.35875e-01
 4.53834e-01
 4.36745e-01
 3.45734e-01
 3.49536e-01
 3.52905e-01
 3.54784e-01
 3.55627e-01
 3.56734e-01
 4.03413e-01
 4.35641e-01
 4.37756e-01
 4.39855e-01
 4.41994e-01
 4.44184e-01
 4.46436e-01
 4.48761e-01
 4.51169e-01
 4.53669e-01
 4.56276e-01
 4.59003e-01
 4.61856e-01
 4.64854e-01
 4.68009e-01
 4.71333e-01
 4.74843e-01
 4.78561e-01
 4.82486e-01
 4.86668e-01
 4.91105e-01
 4.95812e-01
 5.00834e-01
 5.06205e-01
 5.11932e-01
 5.18050e-01
 5.24598e-01
 5.31617e-01
 5.39154e-01
 5.47256e-01
 5.55972e-01
 5.65335e-01
 5.75350e-01
 5.86407e-01
 5.98331e-01
 6.10979e-01
 6.25029e-01
 6.40226e-01
 6.56271e-01
)


51
(
 1.18048e+00
 6.05400e-01
 4.50619e-01
 3.93232e-01
 4.13697e-01
 4.10275e-01
 3.34517e-01
 3.39080e-01
 3.42855e-01
 3.45764e-01
 3.47079e-01
 3.47904e-01
 3.70792e-01
 4.05539e-01
 4.08480e-01
 4.11386e-01
 4.14317e-01
 4.17286e-01
 4.20302e-01
 4.23381e-01
 4.26531e-01
 4.29766e-01
 4.33098e-01
 4.36543e-01
 4.40108e-01
 4.43814e-01
 4.47673e-01
 4.51699e-01
 4.55910e-01
 4.60329e-01
 4.64956e-01
 4.69845e-01
 4.74992e-01
 4.80414e-01
 4.86159e-01
 4.92264e-01
 4.98736e-01
 5.05612e-01
 5.12933e-01
 5.20744e-01
 5.29094e-01
 5.38032e-01
 5.47611e-01
 5.57866e-01
 5.68802e-01
 5.80832e-01
 5.93769e-01
 6.07464e-01
 6.22634e-01
 6.39008e-01
 6.56271e-01
)


51
(
 1.18048e+00
 5.88606e-01
 4.13495e-01
 3.54979e-01
 3.77504e-01
 3.86210e-01
 3.23300e-01
 3.28624e-01
 3.33247e-01
 3.36842e-01
 3.38837e-01
 3.40283e-01
 3.41309e-01
 3.75437e-01
 3.79204e-01
 3.82918e-01
 3.86641e-01
 3.90387e-01
 3.94169e-01
 3.98001e-01
 4.01894e-01
 4.05862e-01
 4.09919e-01
 4.14083e-01
 4.18361e-01
 4.22775e-01
 4.27337e-01
 4.32066e-01
 4.36977e-01
 4.42098e-01
 4.47426e-01
 4.53021e-01
 4.58878e-01
 4.65016e-01
 4.71485e-01
 4.78323e-01
 4.85540e-01
 4.93174e-01
 5.01269e-01
 5.09871e-01
 5.19033e-01
 5.28808e-01
 5.39250e-01
 5.50397e-01
 5.62254e-01
 5.75256e-01
 5.89207e-01
 6.03950e-01
 6.20239e-01
 6.37790e-01
 6.56271e-01
)


51
(
 1.18048e+00
 5.72125e-01
 3.81028e-01
 3.21829e-01
 3.45895e-01
 3.64741e-01
 3.13658e-01
 3.06328e-01
 3.15360e-01
 3.27374e-01
 3.21664e-01
 3.27412e-01
 3.34633e-01
 3.45335e-01
 3.49929e-01
 3.54450e-01
 3.58965e-01
 3.63489e-01
 3.68036e-01
 3.72621e-01
 3.77257e-01
 3.81958e-01
 3.86741e-01
 3.91623e-01
 3.96613e-01
 4.01735e-01
 4.07002e-01
 4.12432e-01
 4.18044e-01
 4.23866e-01
 4.29896e-01
 4.36197e-01
 4.42765e-01
 4.49618e-01
 4.56810e-01
 4.64382e-01
 4.72344e-01
 4.80736e-01
 4.89604e-01
 4.98998e-01
 5.08973e-01
 5.19585e-01
 5.30889e-01
 5.42928e-01
 5.55706e-01
 5.69680e-01
 5.84645e-01
 6.00435e-01
 6.17844e-01
 6.36571e-01
 6.56271e-01
)


51
(
 1.18048e+00
 5.56057e-01
 3.53880e-01
 2.94498e-01
 3.19507e-01
 3.46058e-01
 3.04121e-01
 2.80114e-01
 2.86278e-01
 2.93383e-01
 2.96769e-01
 3.02545e-01
 3.10564e-01
 3.15272e-01
 3.20653e-01
 3.25981e-01
 3.31288e-01
 3.36590e-01
 3.41902e-01
 3.47241e-01
 3.52620e-01
 3.58055e-01
 3.63562e-01
 3.69163e-01
 3.74865e-01
 3.80695e-01
 3.86666e-01
 3.92798e-01
 3.99111e-01
 4.05634e-01
 4.12366e-01
 4.19374e-01
 4.26651e-01
 4.34220e-01
 4.42136e-01
 4.50442e-01
 4.59148e-01
 4.68298e-01
 4.77940e-01
 4.88126e-01
 4.98913e-01
 5.10361e-01
 5.22528e-01
 5.35459e-01
 5.49158e-01
 5.64104e-01
 5.80083e-01
 5.96920e-01
 6.15448e-01
 6.35353e-01
 6.56271e-01
)


51
(
 1.18048e+00
 5.40612e-01
 3.32716e-01
 2.73699e-01
 2.98980e-01
 3.30351e-01
 2.69788e-01
 2.86045e-01
 2.96119e-01
 2.99200e-01
 2.90405e-01
 2.96227e-01
 3.01973e-01
 3.07648e-01
 3.13266e-01
 3.27656e-01
 3.32257e-01
 3.36797e-01
 3.35477e-01
 3.41046e-01
 3.46652e-01
 3.52310e-01
 3.58038e-01
 3.63856e-01
 3.69773e-01
 3.75815e-01
 3.81996e-01
 3.88337e-01
 3.94856e-01
 4.01584e-01
 4.08520e-01
 4.15729e-01
 4.23207e-01
 4.30975e-01
 4.39090e-01
 4.47593e-01
 4.56497e-01
 4.65843e-01
 4.75680e-01
 4.86060e-01
 4.97041e-01
 5.08682e-01
 5.21042e-01
 5.34164e-01
 5.48053e-01
 5.63188e-01
 5.79354e-01
 5.96377e-01
 6.15089e-01
 6.35174e-01
 6.56271e-01
)


51
(
 1.18048e+00
 5.25938e-01
 3.18198e-01
 2.60148e-01
 2.84951e-01
 3.17810e-01
 2.75118e-01
 2.76459e-01
 2.82661e-01
 2.88775e-01
 2.94775e-01
 3.00666e-01
 3.11511e-01
 3.17941e-01
 3.17868e-01
 3.25648e-01
 3.29822e-01
 3.35056e-01
 3.40529e-01
 3.46101e-01
 3.51738e-01
 3.57437e-01
 3.63208e-01
 3.69068e-01
 3.75025e-01
 3.81104e-01
 3.87318e-01
 3.93687e-01
 4.00229e-01
 4.06974e-01
 4.13921e-01
 4.21132e-01
 4.28604e-01
 4.36355e-01
 4.44440e-01
 4.52900e-01
 4.61743e-01
 4.71011e-01
 4.80747e-01
 4.91001e-01
 5.01826e-01
 5.13276e-01
 5.25405e-01
 5.38251e-01
 5.51817e-01
 5.66547e-01
 5.82234e-01
 5.98715e-01
 6.16753e-01
 6.36049e-01
 6.56271e-01
)


51
(
 1.18048e+00
 5.11741e-01
 3.08723e-01
 2.52151e-01
 2.75830e-01
 3.07621e-01
 2.61581e-01
 2.70434e-01
 2.76317e-01
 2.81950e-01
 2.87593e-01
 2.98897e-01
 2.98896e-01
 3.04513e-01
 3.10104e-01
 3.22495e-01
 3.21228e-01
 3.26783e-01
 3.32350e-01
 3.37944e-01
 3.43579e-01
 3.49268e-01
 3.55030e-01
 3.60883e-01
 3.66836e-01
 3.72916e-01
 3.79136e-01
 3.85517e-01
 3.92077e-01
 3.98848e-01
 4.05828e-01
 4.13083e-01
 4.20610e-01
 4.28429e-01
 4.36597e-01
 4.45159e-01
 4.54125e-01
 4.63539e-01
 4.73449e-01
 4.83911e-01
 4.94983e-01
 5.06726e-01
 5.19200e-01
 5.32453e-01
 5.46489e-01
 5.61800e-01
 5.78169e-01
 5.95419e-01
 6.14407e-01
 6.34816e-01
 6.56271e-01
)


51
(
 1.18048e+00
 4.97544e-01
 2.99702e-01
 2.44829e-01
 2.67102e-01
 2.97713e-01
 2.47399e-01
 2.76823e-01
 2.61264e-01
 2.64976e-01
 2.70471e-01
 2.76039e-01
 2.85024e-01
 2.87139e-01
 3.13756e-01
 3.02444e-01
 3.04710e-01
 3.09364e-01
 3.14588e-01
 3.20028e-01
 3.25582e-01
 3.31221e-01
 3.36949e-01
 3.42778e-01
 3.48715e-01
 3.54789e-01
 3.61011e-01
 3.67406e-01
 3.73993e-01
 3.80806e-01
 3.87843e-01
 3.95178e-01
 4.02808e-01
 4.10756e-01
 4.19087e-01
 4.27853e-01
 4.37066e-01
 4.46780e-01
 4.57053e-01
 4.67952e-01
 4.79549e-01
 4.91920e-01
 5.05145e-01
 5.19286e-01
 5.34357e-01
 5.50962e-01
 5.68862e-01
 5.87847e-01
 6.09002e-01
 6.31970e-01
 6.56271e-01
)


51
(
 1.18048e+00
 4.85007e-01
 2.90979e-01
 2.37981e-01
 2.58622e-01
 2.88030e-01
 2.35736e-01
 2.53050e-01
 2.66700e-01
 2.83288e-01
 2.88017e-01
 2.88888e-01
 2.99520e-01
 3.02133e-01
 3.10675e-01
 3.13977e-01
 3.19702e-01
 3.25378e-01
 3.31039e-01
 3.36711e-01
 3.42414e-01
 3.48166e-01
 3.53986e-01
 3.59895e-01
 3.65903e-01
 3.72035e-01
 3.78306e-01
 3.84736e-01
 3.91345e-01
 3.98165e-01
 4.05191e-01
 4.12493e-01
 4.20065e-01
 4.27928e-01
 4.36140e-01
 4.44744e-01
 4.53751e-01
 4.63204e-01
 4.73154e-01
 4.83654e-01
 4.94761e-01
 5.06539e-01
 5.19046e-01
 5.32329e-01
 5.46393e-01
 5.61729e-01
 5.78121e-01
 5.95390e-01
 6.14392e-01
 6.34811e-01
 6.56271e-01
)


51
(
 1.18048e+00
 4.72811e-01
 2.82560e-01
 2.31578e-01
 2.50400e-01
 2.78594e-01
 2.30700e-01
 2.36364e-01
 2.42278e-01
 2.48172e-01
 2.77998e-01
 2.86963e-01
 2.95393e-01
 3.00924e-01
 3.06665e-01
 3.12294e-01
 3.17919e-01
 3.23549e-01
 3.29194e-01
 3.34866e-01
 3.40579e-01
 3.46347e-01
 3.52185e-01
 3.58116e-01
 3.64146e-01
 3.70303e-01
 3.76600e-01
 3.83057e-01
 3.89695e-01
 3.96543e-01
 4.03602e-01
 4.10936e-01
 4.18543e-01
 4.26444e-01
 4.34695e-01
 4.43342e-01
 4.52395e-01
 4.61898e-01
 4.71901e-01
 4.82459e-01
 4.93631e-01
 5.05479e-01
 5.18063e-01
 5.31431e-01
 5.45588e-01
 5.61028e-01
 5.77535e-01
 5.94928e-01
 6.14072e-01
 6.34645e-01
 6.56271e-01
)


51
(
 1.18048e+00
 4.60614e-01
 2.74450e-01
 2.25590e-01
 2.42450e-01
 2.69422e-01
 2.26035e-01
 2.31645e-01
 2.37525e-01
 2.43394e-01
 2.59003e-01
 2.66009e-01
 2.72945e-01
 2.79342e-01
 2.85417e-01
 2.91451e-01
 2.97218e-01
 3.02860e-01
 3.08460e-01
 3.14067e-01
 3.19709e-01
 3.25409e-01
 3.31185e-01
 3.37060e-01
 3.43042e-01
 3.49160e-01
 3.55428e-01
 3.61869e-01
 3.68502e-01
 3.75363e-01
 3.82450e-01
 3.89838e-01
 3.97523e-01
 4.05530e-01
 4.13926e-01
 4.22762e-01
 4.32054e-01
 4.41857e-01
 4.52233e-01
 4.63250e-01
 4.74985e-01
 4.87522e-01
 5.00943e-01
 5.15318e-01
 5.30666e-01
 5.47628e-01
 5.65963e-01
 5.85453e-01
 6.07267e-01
 6.31046e-01
 6.56271e-01
)


51
(
 1.18048e+00
 4.48418e-01
 2.66655e-01
 2.19989e-01
 2.34782e-01
 2.60534e-01
 2.21430e-01
 2.27070e-01
 2.32942e-01
 2.38794e-01
 2.44558e-01
 2.50220e-01
 2.55798e-01
 2.61307e-01
 2.66764e-01
 2.72187e-01
 2.77598e-01
 2.83019e-01
 2.88467e-01
 2.93955e-01
 2.99498e-01
 3.05109e-01
 3.10807e-01
 3.16612e-01
 3.22533e-01
 3.28599e-01
 3.34824e-01
 3.41233e-01
 3.47848e-01
 3.54706e-01
 3.61806e-01
 3.69230e-01
 3.76974e-01
 3.85069e-01
 3.93587e-01
 4.02590e-01
 4.12098e-01
 4.22175e-01
 4.32895e-01
 4.44342e-01
 4.56610e-01
 4.69802e-01
 4.84025e-01
 4.99373e-01
 5.15875e-01
 5.34321e-01
 5.54452e-01
 5.76008e-01
 6.00472e-01
 6.27447e-01
 6.56271e-01
)


51
(
 1.18048e+00
 4.37762e-01
 2.59180e-01
 2.14746e-01
 2.27410e-01
 2.51950e-01
 2.17348e-01
 2.22937e-01
 2.28775e-01
 2.34601e-01
 2.40343e-01
 2.45986e-01
 2.51547e-01
 2.57041e-01
 2.62484e-01
 2.67894e-01
 2.73290e-01
 2.78696e-01
 2.84130e-01
 2.89606e-01
 2.95139e-01
 3.00743e-01
 3.06434e-01
 3.12233e-01
 3.18150e-01
 3.24213e-01
 3.30437e-01
 3.36846e-01
 3.43462e-01
 3.50324e-01
 3.57431e-01
 3.64864e-01
 3.72622e-01
 3.80734e-01
 3.89276e-01
 3.98309e-01
 4.07856e-01
 4.17982e-01
 4.28764e-01
 4.40289e-01
 4.52655e-01
 4.65970e-01
 4.80346e-01
 4.95883e-01
 5.12614e-01
 5.31363e-01
 5.51870e-01
 5.73867e-01
 5.98915e-01
 6.26616e-01
 6.56271e-01
)


51
(
 1.18048e+00
 4.27511e-01
 2.52031e-01
 2.09831e-01
 2.20345e-01
 2.43689e-01
 2.13266e-01
 2.18803e-01
 2.24624e-01
 2.30430e-01
 2.36151e-01
 2.41776e-01
 2.47320e-01
 2.52798e-01
 2.58227e-01
 2.63624e-01
 2.69006e-01
 2.74396e-01
 2.79816e-01
 2.85281e-01
 2.90804e-01
 2.96399e-01
 3.02083e-01
 3.07877e-01
 3.13789e-01
 3.19849e-01
 3.26072e-01
 3.32480e-01
 3.39099e-01
 3.45964e-01
 3.53077e-01
 3.60519e-01
 3.68290e-01
 3.76420e-01
 3.84984e-01
 3.94047e-01
 4.03632e-01
 4.13807e-01
 4.24651e-01
 4.36253e-01
 4.48716e-01
 4.62153e-01
 4.76682e-01
 4.92406e-01
 5.09364e-01
 5.28415e-01
 5.49296e-01
 5.71732e-01
 5.97362e-01
 6.25788e-01
 6.56271e-01
)


51
(
 1.18048e+00
 4.17261e-01
 2.45214e-01
 2.05216e-01
 2.13599e-01
 2.35770e-01
 2.09517e-01
 2.15065e-01
 2.20855e-01
 2.26634e-01
 2.32333e-01
 2.37938e-01
 2.43464e-01
 2.48926e-01
 2.54340e-01
 2.59724e-01
 2.65094e-01
 2.70469e-01
 2.75874e-01
 2.81325e-01
 2.86836e-01
 2.92421e-01
 2.98096e-01
 3.03883e-01
 3.09789e-01
 3.15843e-01
 3.22062e-01
 3.28468e-01
 3.35085e-01
 3.41951e-01
 3.49067e-01
 3.56514e-01
 3.64293e-01
 3.72434e-01
 3.81015e-01
 3.90102e-01
 3.99717e-01
 4.09931e-01
 4.20825e-01
 4.32493e-01
 4.45039e-01
 4.58581e-01
 4.73243e-01
 4.89134e-01
 5.06296e-01
 5.25622e-01
 5.46849e-01
 5.69694e-01
 5.95874e-01
 6.24991e-01
 6.56271e-01
)


51
(
 1.18048e+00
 4.08341e-01
 2.38734e-01
 2.00871e-01
 2.07185e-01
 2.28212e-01
 2.05916e-01
 2.11453e-01
 2.17222e-01
 2.22978e-01
 2.28656e-01
 2.34241e-01
 2.39750e-01
 2.45195e-01
 2.50594e-01
 2.55963e-01
 2.61320e-01
 2.66682e-01
 2.72071e-01
 2.77508e-01
 2.83007e-01
 2.88581e-01
 2.94246e-01
 3.00025e-01
 3.05924e-01
 3.11972e-01
 3.18186e-01
 3.24589e-01
 3.31204e-01
 3.38070e-01
 3.45186e-01
 3.52637e-01
 3.60423e-01
 3.68574e-01
 3.77170e-01
 3.86276e-01
 3.95919e-01
 4.06169e-01
 4.17110e-01
 4.28838e-01
 4.41462e-01
 4.55104e-01
 4.69892e-01
 4.85942e-01
 5.03300e-01
 5.22891e-01
 5.44452e-01
 5.67693e-01
 5.94410e-01
 6.24207e-01
 6.56271e-01
)


51
(
 1.18048e+00
 3.99520e-01
 2.32597e-01
 1.96768e-01
 2.01115e-01
 2.21035e-01
 2.02514e-01
 2.08040e-01
 2.13787e-01
 2.19520e-01
 2.25176e-01
 2.30742e-01
 2.36232e-01
 2.41661e-01
 2.47044e-01
 2.52399e-01
 2.57743e-01
 2.63092e-01
 2.68466e-01
 2.73888e-01
 2.79373e-01
 2.84935e-01
 2.90591e-01
 2.96360e-01
 3.02251e-01
 3.08293e-01
 3.14501e-01
 3.20899e-01
 3.27510e-01
 3.34374e-01
 3.41490e-01
 3.48943e-01
 3.56733e-01
 3.64892e-01
 3.73499e-01
 3.82622e-01
 3.92288e-01
 4.02570e-01
 4.13552e-01
 4.25334e-01
 4.38028e-01
 4.51761e-01
 4.66667e-01
 4.82865e-01
 5.00406e-01
 5.20247e-01
 5.42127e-01
 5.65748e-01
 5.92984e-01
 6.23442e-01
 6.56271e-01
)


51
(
 1.18048e+00
 3.90700e-01
 2.26809e-01
 1.92877e-01
 1.95401e-01
 2.14258e-01
 1.99283e-01
 2.04766e-01
 2.10482e-01
 2.16189e-01
 2.21823e-01
 2.27369e-01
 2.32841e-01
 2.38253e-01
 2.43621e-01
 2.48961e-01
 2.54291e-01
 2.59627e-01
 2.64987e-01
 2.70394e-01
 2.75866e-01
 2.81415e-01
 2.87060e-01
 2.92820e-01
 2.98702e-01
 3.04736e-01
 3.10938e-01
 3.17331e-01
 3.23938e-01
 3.30798e-01
 3.37913e-01
 3.45367e-01
 3.53160e-01
 3.61324e-01
 3.69941e-01
 3.79079e-01
 3.88766e-01
 3.99075e-01
 4.10096e-01
 4.21928e-01
 4.34688e-01
 4.48507e-01
 4.63523e-01
 4.79862e-01
 4.97578e-01
 5.17661e-01
 5.39849e-01
 5.63840e-01
 5.91582e-01
 6.22688e-01
 6.56271e-01
)


51
(
 1.18048e+00
 3.83098e-01
 2.21375e-01
 1.89168e-01
 1.90054e-01
 2.07901e-01
 1.96195e-01
 2.01670e-01
 2.07365e-01
 2.13051e-01
 2.18663e-01
 2.24189e-01
 2.29643e-01
 2.35038e-01
 2.40390e-01
 2.45716e-01
 2.51032e-01
 2.56355e-01
 2.61702e-01
 2.67093e-01
 2.72550e-01
 2.78087e-01
 2.83720e-01
 2.89469e-01
 2.95342e-01
 3.01368e-01
 3.07562e-01
 3.13948e-01
 3.20550e-01
 3.27407e-01
 3.34518e-01
 3.41971e-01
 3.49765e-01
 3.57932e-01
 3.66556e-01
 3.75706e-01
 3.85410e-01
 3.95744e-01
 4.06797e-01
 4.18673e-01
 4.31493e-01
 4.45389e-01
 4.60507e-01
 4.76977e-01
 4.94856e-01
 5.15165e-01
 5.37646e-01
 5.61988e-01
 5.90218e-01
 6.21954e-01
 6.56271e-01
)


51
(
 1.18048e+00
 3.75561e-01
 2.16300e-01
 1.85614e-01
 1.85088e-01
 2.01982e-01
 1.93011e-01
 1.98401e-01
 2.04050e-01
 2.09704e-01
 2.15290e-01
 2.20794e-01
 2.26228e-01
 2.31604e-01
 2.36939e-01
 2.42248e-01
 2.47549e-01
 2.52858e-01
 2.58190e-01
 2.63564e-01
 2.69004e-01
 2.74527e-01
 2.80147e-01
 2.85883e-01
 2.91746e-01
 2.97761e-01
 3.03946e-01
 3.10324e-01
 3.16921e-01
 3.23769e-01
 3.30887e-01
 3.38327e-01
 3.46119e-01
 3.54302e-01
 3.62930e-01
 3.72081e-01
 3.81800e-01
 3.92141e-01
 4.03211e-01
 4.15140e-01
 4.28001e-01
 4.41937e-01
 4.57203e-01
 4.73910e-01
 4.92159e-01
 5.12327e-01
 5.35233e-01
 5.60364e-01
 5.88565e-01
 6.21414e-01
 6.56271e-01
)


51
(
 1.18048e+00
 3.68023e-01
 2.11590e-01
 1.82185e-01
 1.80514e-01
 1.96522e-01
 1.89826e-01
 1.95273e-01
 2.00922e-01
 2.06557e-01
 2.12121e-01
 2.17606e-01
 2.23019e-01
 2.28376e-01
 2.33693e-01
 2.38986e-01
 2.44272e-01
 2.49566e-01
 2.54885e-01
 2.60244e-01
 2.65666e-01
 2.71175e-01
 2.76783e-01
 2.82504e-01
 2.88358e-01
 2.94361e-01
 3.00536e-01
 3.06906e-01
 3.13498e-01
 3.20338e-01
 3.27459e-01
 3.34887e-01
 3.42677e-01
 3.50870e-01
 3.59501e-01
 3.68654e-01
 3.78387e-01
 3.88736e-01
 3.99823e-01
 4.11798e-01
 4.24701e-01
 4.38680e-01
 4.54075e-01
 4.70983e-01
 4.89542e-01
 5.09649e-01
 5.32934e-01
 5.58734e-01
 5.87016e-01
 6.20845e-01
 6.56271e-01
)


51
(
 1.18048e+00
 3.61230e-01
 2.07252e-01
 1.78852e-01
 1.76344e-01
 1.91538e-01
 1.87145e-01
 1.92586e-01
 1.98216e-01
 2.03831e-01
 2.09375e-01
 2.14840e-01
 2.20236e-01
 2.25577e-01
 2.30878e-01
 2.36157e-01
 2.41428e-01
 2.46709e-01
 2.52015e-01
 2.57361e-01
 2.62768e-01
 2.68263e-01
 2.73857e-01
 2.79567e-01
 2.85409e-01
 2.91403e-01
 2.97568e-01
 3.03930e-01
 3.10514e-01
 3.17348e-01
 3.24462e-01
 3.31886e-01
 3.39673e-01
 3.47866e-01
 3.56498e-01
 3.65656e-01
 3.75399e-01
 3.85763e-01
 3.96873e-01
 4.08881e-01
 4.21827e-01
 4.35866e-01
 4.51344e-01
 4.68363e-01
 4.87066e-01
 5.07354e-01
 5.30900e-01
 5.57037e-01
 5.85731e-01
 6.20174e-01
 6.56271e-01
)


51
(
 1.18048e+00
 3.54728e-01
 2.03290e-01
 1.75586e-01
 1.72591e-01
 1.87052e-01
 1.84575e-01
 1.90010e-01
 1.95621e-01
 2.01215e-01
 2.06739e-01
 2.12186e-01
 2.17564e-01
 2.22889e-01
 2.28175e-01
 2.33439e-01
 2.38697e-01
 2.43964e-01
 2.49257e-01
 2.54591e-01
 2.59984e-01
 2.65463e-01
 2.71044e-01
 2.76741e-01
 2.82572e-01
 2.88555e-01
 2.94712e-01
 3.01064e-01
 3.07640e-01
 3.14466e-01
 3.21575e-01
 3.28994e-01
 3.36777e-01
 3.44968e-01
 3.53601e-01
 3.62763e-01
 3.72514e-01
 3.82891e-01
 3.94021e-01
 4.06057e-01
 4.19044e-01
 4.33139e-01
 4.48694e-01
 4.65817e-01
 4.84659e-01
 5.05119e-01
 5.28915e-01
 5.55378e-01
 5.84472e-01
 6.19516e-01
 6.56271e-01
)


51
(
 1.18048e+00
 3.48610e-01
 1.99710e-01
 1.72358e-01
 1.69266e-01
 1.83081e-01
 1.82113e-01
 1.87541e-01
 1.93136e-01
 1.98711e-01
 2.04216e-01
 2.09645e-01
 2.15007e-01
 2.20316e-01
 2.25587e-01
 2.30837e-01
 2.36081e-01
 2.41335e-01
 2.46615e-01
 2.51936e-01
 2.57316e-01
 2.62781e-01
 2.68348e-01
 2.74033e-01
 2.79852e-01
 2.85824e-01
 2.91971e-01
 2.98314e-01
 3.04881e-01
 3.11700e-01
 3.18801e-01
 3.26214e-01
 3.33993e-01
 3.42181e-01
 3.50814e-01
 3.59978e-01
 3.69736e-01
 3.80124e-01
 3.91271e-01
 4.03334e-01
 4.16358e-01
 4.30503e-01
 4.46131e-01
 4.63353e-01
 4.82326e-01
 5.02949e-01
 5.26986e-01
 5.53763e-01
 5.83244e-01
 6.18873e-01
 6.56271e-01
)


51
(
 1.18048e+00
 3.44168e-01
 1.96518e-01
 1.69138e-01
 1.66382e-01
 1.79645e-01
 1.79750e-01
 1.85183e-01
 1.90765e-01
 1.96322e-01
 2.01810e-01
 2.07222e-01
 2.12568e-01
 2.17861e-01
 2.23118e-01
 2.28353e-01
 2.33584e-01
 2.38826e-01
 2.44093e-01
 2.49402e-01
 2.54770e-01
 2.60220e-01
 2.65773e-01