/*--------------------------------*- C++ -*----------------------------------*\
| =========                 |                                                 |
| \      /  F ield          | OpenFOAM: The Open Source CFD Toolbox           |
|  \    /   O peration      | Version:  7                                     |
|   \  /    A nd            | Web:      http://www.OpenFOAM.com               |
|    \/     M anipulation   |                                                 |
\*---------------------------------------------------------------------------*/
FoamFile 
{   version     2.0;
    format      ascii;
    class       dictionary;
    location    "constant";
    object      LDMtable;
}
// * * * * * * * * * * * * * * * * * * * * * * * * * * * * * * * * * * * * * //

SourcePV_table
51
(

51
(
 0.00000e+00
 1.16174e-28
 5.16814e-20
 9.45302e-21
 1.64889e-19
 4.30046e-16
 3.36723e-26
 4.57823e-27
 3.80165e-25
 1.99051e-24
 3.11648e-26
 3.31771e-25
 1.19565e-24
 1.00917e-25
 6.41291e-26
 2.30603e-26
 2.25389e-26
 1.66754e-26
 6.01566e-26
 1.48873e-26
 3.85823e-26
 2.77906e-26
 2.44791e-26
 2.36073e-27
 5.27891e-27
 1.32563e-26
 2.42717e-26
 1.61197e-26
 1.38482e-26
 6.56248e-28
 2.04337e-27
 1.44935e-26
 3.21152e-26
 4.46370e-27
 5.88611e-27
 1.14932e-26
 2.51312e-26
 1.57466e-26
 1.49770e-26
 1.18656e-26
 6.24418e-27
 8.81490e-27
 3.50895e-28
 6.69824e-29
 4.40071e-29
 3.14864e-29
 5.58941e-29
 2.38170e-29
 2.92931e-29
 1.98711e-29
 0.00000e+00
)


51
(
 0.00000e+00
 5.24148e-17
 5.86405e-04
 4.69425e-03
 7.44462e-05
 4.35770e-06
 1.81683e-09
 1.67385e-08
 1.14000e-07
 6.08283e-07
 2.43671e-06
 7.51639e-06
 1.47083e-05
 1.82782e-05
 1.76585e-06
 1.33561e-06
 1.03295e-06
 8.13607e-07
 6.50114e-07
 5.25395e-07
 4.28447e-07
 3.51950e-07
 2.91355e-07
 2.43154e-07
 2.03902e-07
 1.72339e-07
 1.46540e-07
 1.25396e-07
 1.07864e-07
 9.33294e-08
 8.09033e-08
 7.04498e-08
 6.13795e-08
 5.34154e-08
 4.64351e-08
 4.02779e-08
 3.47632e-08
 2.98093e-08
 2.53509e-08
 2.13361e-08
 1.77235e-08
 1.44800e-08
 1.15782e-08
 8.99263e-09
 6.69383e-09
 4.79960e-09
 3.20023e-09
 1.83832e-09
 9.14807e-10
 3.31984e-10
 0.00000e+00
)


51
(
 0.00000e+00
 1.04830e-16
 5.98585e-03
 4.79176e-02
 7.59925e-04
 4.46931e-05
 3.63365e-09
 3.34771e-08
 2.28001e-07
 1.21657e-06
 4.87342e-06
 1.50328e-05
 2.94166e-05
 3.65564e-05
 3.53171e-06
 2.67123e-06
 2.06589e-06
 1.62721e-06
 1.30023e-06
 1.05079e-06
 8.56895e-07
 7.03900e-07
 5.82710e-07
 4.86308e-07
 4.07804e-07
 3.44679e-07
 2.93081e-07
 2.50792e-07
 2.15729e-07
 1.86659e-07
 1.61807e-07
 1.40900e-07
 1.22759e-07
 1.06831e-07
 9.28702e-08
 8.05558e-08
 6.95263e-08
 5.96185e-08
 5.07018e-08
 4.26723e-08
 3.54471e-08
 2.89601e-08
 2.31564e-08
 1.79853e-08
 1.33877e-08
 9.59919e-09
 6.40047e-09
 3.67663e-09
 1.82961e-09
 6.63968e-10
 0.00000e+00
)


51
(
 0.00000e+00
 1.57244e-16
 1.66236e-02
 1.33074e-01
 2.11042e-03
 1.24741e-04
 5.45048e-09
 5.02156e-08
 3.42001e-07
 1.82485e-06
 7.31014e-06
 2.25492e-05
 4.41249e-05
 5.48346e-05
 5.29756e-06
 4.00684e-06
 3.09884e-06
 2.44082e-06
 1.95034e-06
 1.57619e-06
 1.28534e-06
 1.05585e-06
 8.74065e-07
 7.29462e-07
 6.11706e-07
 5.17018e-07
 4.39621e-07
 3.76187e-07
 3.23593e-07
 2.79988e-07
 2.42710e-07
 2.11349e-07
 1.84138e-07
 1.60246e-07
 1.39305e-07
 1.20834e-07
 1.04289e-07
 8.94278e-08
 7.60527e-08
 6.40084e-08
 5.31706e-08
 4.34401e-08
 3.47346e-08
 2.69779e-08
 2.00815e-08
 1.43988e-08
 9.60070e-09
 5.51495e-09
 2.74442e-09
 9.95952e-10
 0.00000e+00
)


51
(
 0.00000e+00
 2.09659e-16
 3.19950e-02
 2.56125e-01
 4.06189e-03
 2.41358e-04
 7.26731e-09
 6.69541e-08
 4.56002e-07
 2.43313e-06
 9.74685e-06
 3.00656e-05
 5.88332e-05
 7.31128e-05
 7.06341e-06
 5.34245e-06
 4.13178e-06
 3.25443e-06
 2.60045e-06
 2.10158e-06
 1.71379e-06
 1.40780e-06
 1.16542e-06
 9.72616e-07
 8.15608e-07
 6.89357e-07
 5.86162e-07
 5.01583e-07
 4.31457e-07
 3.73317e-07
 3.23613e-07
 2.81799e-07
 2.45518e-07
 2.13662e-07
 1.85740e-07
 1.61112e-07
 1.39053e-07
 1.19237e-07
 1.01404e-07
 8.53446e-08
 7.08942e-08
 5.79202e-08
 4.63128e-08
 3.59705e-08
 2.67753e-08
 1.91984e-08
 1.28009e-08
 7.35326e-09
 3.65923e-09
 1.32794e-09
 0.00000e+00
)


51
(
 0.00000e+00
 1.28326e-15
 5.15959e-02
 4.13032e-01
 6.55028e-03
 3.91403e-04
 9.08413e-09
 8.36926e-08
 5.70002e-07
 3.04141e-06
 1.21836e-05
 3.75819e-05
 7.35415e-05
 9.13910e-05
 8.82926e-06
 6.67807e-06
 5.16473e-06
 4.06804e-06
 3.25057e-06
 2.62698e-06
 2.14224e-06
 1.75975e-06
 1.45678e-06
 1.21577e-06
 1.01951e-06
 8.61697e-07
 7.32702e-07
 6.26979e-07
 5.39321e-07
 4.66647e-07
 4.04516e-07
 3.52249e-07
 3.06897e-07
 2.67077e-07
 2.32176e-07
 2.01389e-07
 1.73816e-07
 1.49046e-07
 1.26755e-07
 1.06681e-07
 8.86177e-08
 7.24002e-08
 5.78911e-08
 4.49631e-08
 3.34691e-08
 2.39980e-08
 1.60012e-08
 9.19158e-09
 4.57403e-09
 1.65992e-09
 0.00000e+00
)


51
(
 0.00000e+00
 1.70814e-14
 7.49215e-02
 5.99758e-01
 9.51156e-03
 5.71731e-04
 1.09010e-08
 1.00431e-07
 6.84002e-07
 3.64970e-06
 1.46203e-05
 4.50983e-05
 8.82497e-05
 1.09669e-04
 1.05951e-05
 8.01368e-06
 6.19768e-06
 4.88164e-06
 3.90068e-06
 3.15237e-06
 2.57068e-06
 2.11170e-06
 1.74813e-06
 1.45892e-06
 1.22341e-06
 1.03404e-06
 8.79242e-07
 7.52375e-07
 6.47186e-07
 5.59976e-07
 4.85420e-07
 4.22699e-07
 3.68277e-07
 3.20492e-07
 2.78611e-07
 2.41667e-07
 2.08579e-07
 1.78856e-07
 1.52105e-07
 1.28017e-07
 1.06341e-07
 8.68803e-08
 6.94693e-08
 5.39558e-08
 4.01630e-08
 2.87976e-08
 1.92014e-08
 1.10299e-08
 5.48884e-09
 1.99190e-09
 0.00000e+00
)


51
(
 0.00000e+00
 8.67367e-14
 1.01468e-01
 8.12263e-01
 1.28817e-02
 7.79199e-04
 1.27178e-08
 1.17170e-07
 7.98003e-07
 4.25798e-06
 1.70570e-05
 5.26147e-05
 1.02958e-04
 1.27947e-04
 1.23610e-05
 9.34929e-06
 7.23062e-06
 5.69525e-06
 4.55080e-06
 3.67777e-06
 2.99913e-06
 2.46365e-06
 2.03949e-06
 1.70208e-06
 1.42731e-06
 1.20638e-06
 1.02578e-06
 8.77771e-07
 7.55050e-07
 6.53306e-07
 5.66323e-07
 4.93148e-07
 4.29656e-07
 3.73908e-07
 3.25046e-07
 2.81945e-07
 2.43342e-07
 2.08665e-07
 1.77456e-07
 1.49353e-07
 1.24065e-07
 1.01360e-07
 8.10475e-08
 6.29484e-08
 4.68568e-08
 3.35972e-08
 2.24016e-08
 1.28682e-08
 6.40365e-09
 2.32389e-09
 0.00000e+00
)


51
(
 0.00000e+00
 4.07381e-13
 1.30730e-01
 1.04651e+00
 1.65966e-02
 1.01067e-03
 1.45346e-08
 1.33908e-07
 9.12003e-07
 4.86626e-06
 1.94937e-05
 6.01311e-05
 1.17666e-04
 1.46226e-04
 1.41268e-05
 1.06849e-05
 8.26357e-06
 6.50886e-06
 5.20091e-06
 4.20316e-06
 3.42758e-06
 2.81560e-06
 2.33084e-06
 1.94523e-06
 1.63122e-06
 1.37871e-06
 1.17232e-06
 1.00317e-06
 8.62914e-07
 7.46635e-07
 6.47226e-07
 5.63598e-07
 4.91036e-07
 4.27323e-07
 3.71481e-07
 3.22223e-07
 2.78105e-07
 2.38474e-07
 2.02807e-07
 1.70689e-07
 1.41788e-07
 1.15840e-07
 9.26257e-08
 7.19410e-08
 5.35506e-08
 3.83968e-08
 2.56019e-08
 1.47065e-08
 7.31846e-09
 2.65587e-09
 0.00000e+00
)


51
(
 0.00000e+00
 1.71152e-12
 1.62203e-01
 1.29846e+00
 2.05923e-02
 1.26299e-03
 2.17977e-08
 1.50647e-07
 1.02600e-06
 5.47455e-06
 2.19304e-05
 6.76475e-05
 1.32375e-04
 1.64504e-04
 1.58927e-05
 1.20205e-05
 9.29652e-06
 7.32247e-06
 5.85102e-06
 4.72856e-06
 3.85603e-06
 3.16755e-06
 2.62220e-06
 2.18839e-06
 1.83512e-06
 1.55105e-06
 1.31886e-06
 1.12856e-06
 9.70778e-07
 8.39964e-07
 7.28129e-07
 6.34048e-07
 5.52415e-07
 4.80739e-07
 4.17916e-07
 3.62501e-07
 3.12868e-07
 2.68283e-07
 2.28158e-07
 1.92025e-07
 1.59512e-07
 1.30320e-07
 1.04204e-07
 8.09336e-08
 6.02445e-08
 4.31964e-08
 2.88021e-08
 1.65448e-08
 8.23326e-09
 2.98785e-09
 0.00000e+00
)


51
(
 0.00000e+00
 4.37152e-12
 1.95383e-01
 1.56407e+00
 2.48046e-02
 1.53302e-03
 7.90668e-08
 1.67385e-07
 1.14000e-06
 6.08283e-06
 2.43671e-05
 7.51639e-05
 1.47083e-04
 1.82782e-04
 1.76585e-05
 1.33561e-05
 1.03295e-05
 8.13607e-06
 6.50114e-06
 5.25395e-06
 4.28447e-06
 3.51950e-06
 2.91355e-06
 2.43154e-06
 2.03902e-06
 1.72339e-06
 1.46540e-06
 1.25396e-06
 1.07864e-06
 9.33294e-07
 8.09033e-07
 7.04498e-07
 6.13795e-07
 5.34154e-07
 4.64351e-07
 4.02779e-07
 3.47632e-07
 2.98093e-07
 2.53509e-07
 2.13361e-07
 1.77235e-07
 1.44800e-07
 1.15782e-07
 8.99263e-08
 6.69383e-08
 4.79960e-08
 3.20023e-08
 1.83832e-08
 9.14807e-09
 3.31984e-09
 0.00000e+00
)


51
(
 0.00000e+00
 1.46741e-11
 2.29766e-01
 1.83931e+00
 2.91697e-02
 1.81762e-03
 2.98814e-07
 3.39609e-07
 1.25400e-06
 6.69111e-06
 2.68038e-05
 8.26803e-05
 1.61791e-04
 2.01060e-04
 1.94244e-05
 1.46917e-05
 1.13624e-05
 8.94968e-06
 7.15125e-06
 5.77935e-06
 4.71292e-06
 3.87145e-06
 3.20491e-06
 2.67470e-06
 2.24292e-06
 1.89573e-06
 1.61194e-06
 1.37935e-06
 1.18651e-06
 1.02662e-06
 8.89936e-07
 7.74948e-07
 6.75174e-07
 5.87569e-07
 5.10786e-07
 4.43057e-07
 3.82395e-07
 3.27902e-07
 2.78860e-07
 2.34698e-07
 1.94959e-07
 1.59280e-07
 1.27360e-07
 9.89189e-08
 7.36321e-08
 5.27956e-08
 3.52026e-08
 2.02215e-08
 1.00629e-08
 3.65182e-09
 0.00000e+00
)


51
(
 0.00000e+00
 5.85602e-11
 2.64847e-01
 2.12014e+00
 3.36233e-02
 2.11365e-03
 1.46936e-06
 9.37997e-07
 1.36800e-06
 7.29940e-06
 2.92405e-05
 9.01967e-05
 1.76499e-04
 2.19338e-04
 2.11902e-05
 1.60274e-05
 1.23954e-05
 9.76329e-06
 7.80136e-06
 6.30474e-06
 5.14137e-06
 4.22340e-06
 3.49626e-06
 2.91785e-06
 2.44683e-06
 2.06807e-06
 1.75848e-06
 1.50475e-06
 1.29437e-06
 1.11995e-06
 9.70839e-07
 8.45397e-07
 7.36553e-07
 6.40985e-07
 5.57221e-07
 4.83335e-07
 4.17158e-07
 3.57711e-07
 3.04211e-07
 2.56034e-07
 2.12682e-07
 1.73761e-07
 1.38939e-07
 1.07912e-07
 8.03259e-08
 5.75952e-08
 3.84028e-08
 2.20598e-08
 1.09777e-08
 3.98381e-09
 0.00000e+00
)


51
(
 0.00000e+00
 1.21113e-10
 3.00122e-01
 2.40252e+00
 3.81016e-02
 2.41797e-03
 3.13073e-06
 3.01925e-06
 3.01441e-06
 7.90768e-06
 3.16773e-05
 9.77130e-05
 1.91208e-04
 2.37617e-04
 2.29561e-05
 1.73630e-05
 1.34283e-05
 1.05769e-05
 8.45148e-06
 6.83014e-06
 5.56981e-06
 4.57535e-06
 3.78762e-06
 3.16100e-06
 2.65073e-06
 2.24041e-06
 1.90503e-06
 1.63015e-06
 1.40224e-06
 1.21328e-06
 1.05174e-06
 9.15847e-07
 7.97933e-07
 6.94400e-07
 6.03657e-07
 5.23613e-07
 4.51921e-07
 3.87520e-07
 3.29562e-07
 2.77370e-07
 2.30406e-07
 1.88241e-07
 1.50517e-07
 1.16904e-07
 8.70198e-08
 6.23948e-08
 4.16031e-08
 2.38981e-08
 1.18925e-08
 4.31579e-09
 0.00000e+00
)


51
(
 0.00000e+00
 5.77114e-10
 3.35086e-01
 2.68241e+00
 4.25404e-02
 2.72742e-03
 1.19714e-05
 1.19326e-05
 7.24870e-06
 8.51596e-06
 3.41140e-05
 1.05229e-04
 2.05916e-04
 2.55895e-04
 2.47219e-05
 1.86986e-05
 1.44612e-05
 1.13905e-05
 9.10159e-06
 7.35553e-06
 5.99826e-06
 4.92730e-06
 4.07897e-06
 3.40416e-06
 2.85463e-06
 2.41275e-06
 2.05157e-06
 1.75554e-06
 1.51010e-06
 1.30661e-06
 1.13265e-06
 9.86297e-07
 8.59312e-07
 7.47815e-07
 6.50092e-07
 5.63890e-07
 4.86684e-07
 4.17330e-07
 3.54913e-07
 2.98706e-07
 2.48130e-07
 2.02721e-07
 1.62095e-07
 1.25897e-07
 9.37136e-08
 6.71943e-08
 4.48033e-08
 2.57364e-08
 1.28073e-08
 4.64777e-09
 0.00000e+00
)


51
(
 0.00000e+00
 1.13558e-09
 3.69234e-01
 2.95577e+00
 4.68756e-02
 3.03887e-03
 2.86548e-05
 2.69525e-05
 2.04975e-05
 1.86185e-05
 3.65507e-05
 1.12746e-04
 2.20624e-04
 2.74173e-04
 2.64878e-05
 2.00342e-05
 1.54942e-05
 1.22041e-05
 9.75170e-06
 7.88093e-06
 6.42671e-06
 5.27925e-06
 4.37033e-06
 3.64731e-06
 3.05853e-06
 2.58509e-06
 2.19811e-06
 1.88094e-06
 1.61796e-06
 1.39994e-06
 1.21355e-06
 1.05675e-06
 9.20692e-07
 8.01231e-07
 6.96527e-07
 6.04168e-07
 5.21447e-07
 4.47139e-07
 3.80264e-07
 3.20042e-07
 2.65853e-07
 2.17201e-07
 1.73673e-07
 1.34889e-07
 1.00407e-07
 7.19939e-08
 4.80035e-08
 2.75747e-08
 1.37221e-08
 4.97976e-09
 0.00000e+00
)


51
(
 0.00000e+00
 2.59542e-09
 4.02063e-01
 3.21857e+00
 5.10433e-02
 3.34918e-03
 1.14383e-04
 6.37047e-05
 5.48121e-05
 3.98808e-05
 3.89874e-05
 1.20262e-04
 2.35333e-04
 2.92451e-04
 2.82536e-05
 2.13698e-05
 1.65271e-05
 1.30177e-05
 1.04018e-05
 8.40632e-06
 6.85516e-06
 5.63120e-06
 4.66168e-06
 3.89047e-06
 3.26243e-06
 2.75743e-06
 2.34465e-06
 2.00633e-06
 1.72583e-06
 1.49327e-06
 1.29445e-06
 1.12720e-06
 9.82071e-07
 8.54646e-07
 7.42962e-07
 6.44446e-07
 5.56211e-07
 4.76948e-07
 4.05615e-07
 3.41378e-07
 2.83577e-07
 2.31681e-07
 1.85251e-07
 1.43882e-07
 1.07101e-07
 7.67935e-08
 5.12038e-08
 2.94131e-08
 1.46369e-08
 5.31174e-09
 0.00000e+00
)


51
(
 0.00000e+00
 5.96230e-09
 4.33067e-01
 3.46677e+00
 5.49794e-02
 3.65520e-03
 2.00112e-04
 1.60691e-04
 1.44025e-04
 9.51472e-05
 7.90365e-05
 1.27779e-04
 2.50041e-04
 3.10729e-04
 3.00195e-05
 2.27054e-05
 1.75601e-05
 1.38313e-05
 1.10519e-05
 8.93172e-06
 7.28360e-06
 5.98315e-06
 4.95304e-06
 4.13362e-06
 3.46634e-06
 2.92977e-06
 2.49119e-06
 2.13173e-06
 1.83369e-06
 1.58660e-06
 1.37536e-06
 1.19765e-06
 1.04345e-06
 9.08062e-07
 7.89397e-07
 6.84724e-07
 5.90974e-07
 5.06757e-07
 4.30966e-07
 3.62715e-07
 3.01300e-07
 2.46161e-07
 1.96830e-07
 1.52875e-07
 1.13795e-07
 8.15931e-08
 5.44040e-08
 3.12514e-08
 1.55517e-08
 5.64373e-09
 0.00000e+00
)


51
(
 0.00000e+00
 1.72423e-08
 4.61743e-01
 3.69632e+00
 5.86199e-02
 3.95378e-03
 8.49154e-04
 3.76943e-04
 2.33238e-04
 1.66356e-04
 1.48168e-04
 1.35295e-04
 2.64749e-04
 3.29008e-04
 3.17853e-05
 2.40410e-05
 1.85930e-05
 1.46449e-05
 1.17020e-05
 9.45711e-06
 7.71205e-06
 6.33510e-06
 5.24439e-06
 4.37677e-06
 3.67024e-06
 3.10211e-06
 2.63773e-06
 2.25712e-06
 1.94156e-06
 1.67993e-06
 1.45626e-06
 1.26810e-06
 1.10483e-06
 9.61477e-07
 8.35832e-07
 7.25002e-07
 6.25737e-07
 5.36567e-07
 4.56316e-07
 3.84051e-07
 3.19024e-07
 2.60641e-07
 2.08408e-07
 1.61867e-07
 1.20489e-07
 8.63927e-08
 5.76042e-08
 3.30897e-08
 1.64665e-08
 5.97571e-09
 0.00000e+00
)


51
(
 0.00000e+00
 3.35721e-08
 4.87585e-01
 3.90319e+00
 6.19007e-02
 4.24180e-03
 1.58316e-03
 8.92048e-04
 5.25059e-04
 4.24927e-04
 2.82548e-04
 2.38971e-04
 2.79458e-04
 3.47286e-04
 3.35512e-05
 2.53767e-05
 1.96260e-05
 1.54585e-05
 1.23522e-05
 9.98251e-06
 8.14050e-06
 6.68705e-06
 5.53575e-06
 4.61993e-06
 3.87414e-06
 3.27445e-06
 2.78427e-06
 2.38252e-06
 2.04942e-06
 1.77326e-06
 1.53716e-06
 1.33855e-06
 1.16621e-06
 1.01489e-06
 8.82267e-07
 7.65280e-07
 6.60500e-07
 5.66376e-07
 4.81667e-07
 4.05387e-07
 3.36747e-07
 2.75121e-07
 2.19986e-07
 1.70860e-07
 1.27183e-07
 9.11923e-08
 6.08045e-08
 3.49280e-08
 1.73813e-08
 6.30769e-09
 0.00000e+00
)


51
(
 0.00000e+00
 1.08295e-07
 5.10090e-01
 4.08334e+00
 6.47578e-02
 4.51609e-03
 2.31716e-03
 1.40715e-03
 9.27499e-04
 7.04751e-04
 4.75449e-04
 3.82518e-04
 3.11140e-04
 3.65564e-04
 3.53171e-05
 2.67123e-05
 2.06589e-05
 1.62721e-05
 1.30023e-05
 1.05079e-05
 8.56895e-06
 7.03900e-06
 5.82710e-06
 4.86308e-06
 4.07804e-06
 3.44679e-06
 2.93081e-06
 2.50792e-06
 2.15729e-06
 1.86659e-06
 1.61807e-06
 1.40900e-06
 1.22759e-06
 1.06831e-06
 9.28702e-07
 8.05558e-07
 6.95263e-07
 5.96185e-07
 5.07018e-07
 4.26723e-07
 3.54471e-07
 2.89601e-07
 2.31564e-07
 1.79853e-07
 1.33877e-07
 9.59919e-08
 6.40047e-08
 3.67663e-08
 1.82961e-08
 6.63968e-09
 0.00000e+00
)


51
(
 0.00000e+00
 2.06722e-07
 5.28753e-01
 4.23274e+00
 6.71270e-02
 4.77353e-03
 4.50218e-03
 1.26310e-03
 9.80040e-04
 9.66436e-04
 4.45996e-04
 4.27253e-04
 4.66216e-04
 3.83842e-04
 3.70829e-05
 2.80479e-05
 2.16919e-05
 1.70858e-05
 1.36524e-05
 1.10333e-05
 8.99739e-06
 7.39095e-06
 6.11846e-06
 5.10624e-06
 4.28194e-06
 3.61913e-06
 3.07735e-06
 2.63331e-06
 2.26515e-06
 1.95992e-06
 1.69897e-06
 1.47945e-06
 1.28897e-06
 1.12172e-06
 9.75138e-07
 8.45836e-07
 7.30026e-07
 6.25994e-07
 5.32369e-07
 4.48059e-07
 3.72194e-07
 3.04081e-07
 2.43142e-07
 1.88845e-07
 1.40570e-07
 1.00792e-07
 6.72049e-08
 3.86046e-08
 1.92109e-08
 6.97166e-09
 0.00000e+00
)


51
(
 0.00000e+00
 4.62486e-07
 5.43069e-01
 4.34734e+00
 6.89445e-02
 5.01096e-03
 6.78473e-03
 9.00940e-04
 5.59473e-04
 4.13296e-04
 2.24282e-04
 1.76173e-04
 2.05031e-04
 1.54354e-04
 3.88488e-05
 2.93835e-05
 2.27248e-05
 1.78994e-05
 1.43025e-05
 1.15587e-05
 9.42584e-06
 7.74290e-06
 6.40981e-06
 5.34939e-06
 4.48585e-06
 3.79147e-06
 3.22389e-06
 2.75871e-06
 2.37301e-06
 2.05325e-06
 1.77987e-06
 1.54990e-06
 1.35035e-06
 1.17514e-06
 1.02157e-06
 8.86114e-07
 7.64790e-07
 6.55804e-07
 5.57720e-07
 4.69395e-07
 3.89918e-07
 3.18561e-07
 2.54721e-07
 1.97838e-07
 1.47264e-07
 1.05591e-07
 7.04052e-08
 4.04429e-08
 2.01258e-08
 7.30365e-09
 0.00000e+00
)


51
(
 0.00000e+00
 9.54588e-07
 5.52534e-01
 4.42311e+00
 7.01461e-02
 5.22525e-03
 2.44277e-03
 3.03912e-03
 2.27653e-03
 1.30396e-03
 2.29094e-04
 1.46987e-04
 9.80012e-05
 6.79179e-05
 4.87828e-05
 1.90741e-04
 6.52464e-05
 2.84819e-05
 1.68309e-05
 1.34598e-05
 1.08763e-05
 8.86137e-06
 7.28008e-06
 6.03095e-06
 5.01870e-06
 4.20847e-06
 3.54916e-06
 3.01185e-06
 2.56941e-06
 2.20584e-06
 1.89775e-06
 1.64137e-06
 1.42106e-06
 1.22936e-06
 1.06288e-06
 9.17316e-07
 7.87900e-07
 6.72498e-07
 5.69364e-07
 4.77136e-07
 3.94704e-07
 3.21182e-07
 2.55825e-07
 1.97948e-07
 1.46787e-07
 1.04955e-07
 6.97919e-08
 3.99683e-08
 1.98684e-08
 7.19887e-09
 0.00000e+00
)


51
(
 0.00000e+00
 3.34344e-06
 5.56643e-01
 4.45601e+00
 7.06678e-02
 5.41325e-03
 7.03295e-03
 2.03679e-03
 1.03514e-03
 5.54691e-04
 3.07482e-04
 1.79148e-04
 7.19286e-04
 5.66392e-04
 4.36600e-05
 2.06638e-04
 7.80694e-05
 3.58174e-05
 1.76419e-05
 9.44549e-06
 5.65975e-06
 3.80380e-06
 2.80403e-06
 2.18725e-06
 1.75296e-06
 1.43542e-06
 1.18906e-06
 9.94089e-07
 8.36178e-07
 7.07793e-07
 5.99734e-07
 5.10496e-07
 4.34415e-07
 3.68873e-07
 3.12729e-07
 2.64467e-07
 2.22372e-07
 1.85644e-07
 1.53630e-07
 1.25774e-07
 1.01608e-07
 8.07243e-08
 6.27577e-08
 4.73667e-08
 3.42077e-08
 2.39470e-08
 1.55816e-08
 8.68266e-09
 4.25722e-09
 1.51058e-09
 0.00000e+00
)


51
(
 0.00000e+00
 6.90352e-06
 5.55153e-01
 4.44396e+00
 7.05880e-02
 5.58282e-03
 6.41998e-03
 3.08409e-03
 1.57311e-03
 8.55859e-04
 4.84872e-04
 1.52515e-03
 1.78529e-04
 1.14640e-04
 7.67523e-05
 3.13883e-04
 3.85756e-05
 2.86751e-05
 2.18446e-05
 1.69734e-05
 1.33964e-05
 1.07033e-05
 8.64876e-06
 7.05941e-06
 5.78978e-06
 4.78560e-06
 3.97683e-06
 3.32529e-06
 2.79622e-06
 2.36896e-06
 2.01331e-06
 1.72389e-06
 1.47974e-06
 1.27091e-06
 1.09249e-06
 9.38560e-07
 8.03192e-07
 6.83521e-07
 5.77380e-07
 4.83014e-07
 3.99086e-07
 3.24524e-07
 2.58431e-07
 2.00009e-07
 1.48438e-07
 1.06280e-07
 7.08096e-08
 4.06824e-08
 2.02822e-08
 7.38049e-09
 0.00000e+00
)


51
(
 0.00000e+00
 1.04636e-05
 5.48621e-01
 4.39119e+00
 7.01900e-02
 5.75576e-03
 9.33700e-03
 7.40448e-03
 3.26242e-03
 1.45760e-03
 8.89489e-04
 5.73190e-04
 7.70399e-04
 2.65134e-04
 5.20362e-04
 2.39453e-04
 1.41759e-04
 9.64530e-05
 7.01383e-05
 5.34770e-05
 4.21639e-05
 3.39617e-05
 2.77374e-05
 2.28491e-05
 1.88617e-05
 1.56346e-05
 1.29891e-05
 1.08316e-05
 9.07149e-06
 7.65370e-06
 6.48210e-06
 5.54052e-06
 4.75603e-06
 4.09211e-06
 3.52964e-06
 3.04655e-06
 2.62173e-06
 2.24505e-06
 1.90902e-06
 1.60799e-06
 1.33780e-06
 1.09535e-06
 8.78231e-07
 6.84368e-07
 5.11515e-07
 3.68313e-07
 2.46812e-07
 1.42846e-07
 7.15228e-08
 2.61921e-08
 0.00000e+00
)


51
(
 0.00000e+00
 6.34044e-05
 5.37488e-01
 4.30127e+00
 6.94946e-02
 5.93187e-03
 1.33110e-02
 7.46494e-03
 4.57824e-03
 2.93111e-03
 1.17726e-03
 6.67795e-04
 5.35354e-04
 2.11566e-04
 1.61108e-04
 7.17422e-05
 4.39534e-05
 2.81060e-05
 1.87783e-05
 1.30827e-05
 9.46430e-06
 7.06701e-06
 5.42988e-06
 4.26799e-06
 3.39301e-06
 2.73216e-06
 2.21528e-06
 1.80886e-06
 1.48620e-06
 1.23224e-06
 1.02674e-06
 8.65110e-07
 7.33492e-07
 6.24303e-07
 5.33596e-07
 4.57163e-07
 3.90850e-07
 3.32805e-07
 2.81528e-07
 2.36050e-07
 1.95582e-07
 1.59548e-07
 1.27486e-07
 9.90369e-08
 7.38143e-08
 5.30526e-08
 3.54930e-08
 2.05160e-08
 1.02779e-08
 3.76688e-09
 0.00000e+00
)


51
(
 0.00000e+00
 1.26460e-04
 5.22185e-01
 4.17771e+00
 6.85127e-02
 6.11015e-03
 2.00120e-02
 1.02393e-02
 5.61902e-03
 3.29481e-03
 2.32724e-03
 1.60088e-03
 8.71990e-04
 4.75161e-04
 2.11686e-04
 1.08183e-04
 5.41704e-05
 2.66557e-05
 1.29380e-05
 6.22735e-06
 2.98749e-06
 1.43519e-06
 7.07324e-07
 3.62065e-07
 1.86323e-07
 1.00774e-07
 5.59424e-08
 3.23960e-08
 1.93973e-08
 1.22677e-08
 7.93990e-09
 5.44205e-09
 3.84224e-09
 2.77227e-09
 2.05209e-09
 1.55016e-09
 1.17875e-09
 8.98595e-10
 6.84204e-10
 5.18411e-10
 3.89406e-10
 2.88737e-10
 2.10106e-10
 1.48653e-10
 1.00579e-10
 6.72220e-11
 4.17734e-11
 2.20793e-11
 1.06217e-11
 3.65686e-12
 0.00000e+00
)


51
(
 0.00000e+00
 1.89516e-04
 5.03143e-01
 4.02399e+00
 6.72550e-02
 6.28961e-03
 2.93132e-02
 1.44985e-02
 7.82036e-03
 4.53267e-03
 2.89064e-03
 1.90507e-03
 1.20761e-03
 7.74578e-04
 5.62491e-04
 3.67693e-04
 2.47901e-04
 1.74253e-04
 1.27804e-04
 9.72571e-05
 7.61171e-05
 6.07284e-05
 4.91274e-05
 4.01002e-05
 3.27759e-05
 2.68514e-05
 2.19776e-05
 1.79879e-05
 1.47336e-05
 1.21331e-05
 1.00187e-05
 8.36972e-06
 7.04283e-06
 5.96138e-06
 5.08090e-06
 4.35077e-06
 3.72438e-06
 3.17896e-06
 2.69814e-06
 2.27054e-06
 1.88824e-06
 1.54589e-06
 1.23962e-06
 9.66323e-07
 7.22751e-07
 5.20962e-07
 3.49666e-07
 2.02996e-07
 1.02049e-07
 3.75912e-08
 0.00000e+00
)


51
(
 0.00000e+00
 2.52572e-04
 4.80791e-01
 3.84363e+00
 6.57324e-02
 6.46926e-03
 3.93891e-02
 1.95301e-02
 1.04550e-02
 6.00491e-03
 3.63716e-03
 2.33457e-03
 1.55379e-03
 1.07115e-03
 7.62930e-04
 5.59507e-04
 4.20554e-04
 3.22864e-04
 2.52179e-04
 1.99744e-04
 1.59975e-04
 1.29202e-04
 1.05129e-04
 8.60341e-05
 7.03994e-05
 5.76871e-05
 4.72010e-05
 3.86006e-05
 3.15760e-05
 2.59584e-05
 2.13913e-05
 1.78344e-05
 1.49787e-05
 1.26584e-05
 1.07765e-05
 9.22167e-06
 7.89153e-06
 6.73561e-06
 5.71779e-06
 4.81294e-06
 4.00393e-06
 3.27914e-06
 2.63041e-06
 2.05120e-06
 1.53472e-06
 1.10656e-06
 7.42969e-07
 4.31540e-07
 2.17046e-07
 8.00080e-08
 0.00000e+00
)


51
(
 0.00000e+00
 7.03747e-04
 4.55560e-01
 3.64010e+00
 6.39558e-02
 6.64810e-03
 5.62047e-02
 2.69433e-02
 1.41513e-02
 8.01454e-03
 4.79548e-03
 3.04439e-03
 2.00422e-03
 1.36689e-03
 9.63606e-04
 7.00012e-04
 5.21742e-04
 3.97631e-04
 3.08631e-04
 2.43145e-04
 1.93845e-04
 1.55955e-04
 1.26508e-04
 1.03281e-04
 8.43403e-05
 6.89801e-05
 5.63171e-05
 4.59236e-05
 3.74239e-05
 3.06219e-05
 2.50969e-05
 2.08103e-05
 1.73895e-05
 1.46323e-05
 1.24184e-05
 1.06072e-05
 9.06926e-06
 7.73999e-06
 6.57317e-06
 5.53704e-06
 4.61042e-06
 3.77941e-06
 3.03454e-06
 2.36854e-06
 1.77383e-06
 1.27998e-06
 8.60185e-07
 5.00281e-07
 2.51942e-07
 9.30444e-08
 0.00000e+00
)


51
(
 0.00000e+00
 1.25712e-03
 4.27880e-01
 3.41691e+00
 6.19358e-02
 6.82516e-03
 7.30203e-02
 3.43565e-02
 1.79081e-02
 1.00643e-02
 5.97618e-03
 3.76672e-03
 2.46164e-03
 1.66655e-03
 1.16646e-03
 8.41712e-04
 6.23562e-04
 4.72710e-04
 3.65217e-04
 2.86582e-04
 2.27698e-04
 1.82666e-04
 1.47833e-04
 1.20474e-04
 9.82312e-05
 8.02298e-05
 6.53970e-05
 5.32164e-05
 4.32462e-05
 3.52630e-05
 2.87821e-05
 2.37671e-05
 1.97825e-05
 1.65898e-05
 1.40454e-05
 1.19796e-05
 1.02358e-05
 8.73497e-06
 7.42086e-06
 6.25500e-06
 5.21212e-06
 4.27600e-06
 3.43594e-06
 2.68391e-06
 2.01160e-06
 1.45251e-06
 9.76852e-07
 5.68740e-07
 2.86709e-07
 1.06040e-07
 0.00000e+00
)


51
(
 0.00000e+00
 1.81049e-03
 3.98181e-01
 3.17756e+00
 5.96834e-02
 6.99942e-03
 9.64535e-02
 4.49585e-02
 2.30717e-02
 1.27993e-02
 7.51132e-03
 4.68354e-03
 3.02768e-03
 2.02729e-03
 1.40351e-03
 1.00220e-03
 7.35333e-04
 5.52726e-04
 4.23927e-04
 3.30586e-04
 2.61282e-04
 2.08691e-04
 1.68309e-04
 1.36805e-04
 1.11325e-04
 9.07882e-05
 7.38968e-05
 6.00263e-05
 4.86592e-05
 3.95438e-05
 3.21398e-05
 2.64189e-05
 2.18905e-05
 1.82842e-05
 1.54346e-05
 1.31425e-05
 1.12224e-05
 9.57928e-06
 8.14534e-06
 6.87447e-06
 5.73683e-06
 4.71379e-06
 3.79359e-06
 2.96783e-06
 2.22789e-06
 1.61071e-06
 1.08471e-06
 6.32678e-07
 3.19402e-07
 1.18377e-07
 0.00000e+00
)


51
(
 0.00000e+00
 4.20582e-03
 3.66894e-01
 2.92554e+00
 5.72093e-02
 7.16991e-03
 1.23156e-01
 5.67724e-02
 2.88159e-02
 1.58163e-02
 9.18597e-03
 5.67235e-03
 3.63068e-03
 2.40640e-03
 1.64885e-03
 1.16552e-03
 8.47019e-04
 6.31216e-04
 4.80507e-04
 3.72303e-04
 2.92652e-04
 2.32684e-04
 1.86982e-04
 1.51572e-04
 1.23093e-04
 1.00244e-04
 8.14948e-05
 6.61066e-05
 5.34835e-05
 4.33453e-05
 3.51030e-05
 2.87383e-05
 2.37148e-05
 1.97341e-05
 1.66125e-05
 1.41231e-05
 1.20531e-05
 1.02918e-05
 8.75987e-06
 7.40353e-06
 6.18837e-06
 5.09344e-06
 4.10610e-06
 3.21773e-06
 2.41966e-06
 1.75176e-06
 1.18141e-06
 6.90402e-07
 3.49044e-07
 1.29630e-07
 0.00000e+00
)


51
(
 0.00000e+00
 6.73979e-03
 3.34449e-01
 2.66434e+00
 5.45244e-02
 7.33562e-03
 1.54607e-01
 7.04729e-02
 3.53806e-02
 1.92097e-02
 1.10380e-02
 6.74787e-03
 4.27499e-03
 2.80353e-03
 1.90004e-03
 1.32835e-03
 9.55073e-04
 7.04727e-04
 5.31767e-04
 4.08891e-04
 3.19328e-04
 2.52511e-04
 2.02033e-04
 1.63239e-04
 1.32248e-04
 1.07531e-04
 8.73190e-05
 7.07527e-05
 5.71550e-05
 4.62160e-05
 3.73105e-05
 3.04321e-05
 2.50138e-05
 2.07386e-05
 1.74094e-05
 1.47772e-05
 1.26051e-05
 1.07683e-05
 9.17646e-06
 7.76866e-06
 6.50613e-06
 5.36582e-06
 4.33444e-06
 3.40350e-06
 2.56463e-06
 1.85975e-06
 1.25637e-06
 7.35833e-07
 3.72589e-07
 1.38681e-07
 0.00000e+00
)


51
(
 0.00000e+00
 9.27377e-03
 3.01276e-01
 2.39747e+00
 5.16395e-02
 7.49558e-03
 1.90055e-01
 8.54811e-02
 4.24650e-02
 2.28284e-02
 1.29901e-02
 7.86865e-03
 4.93819e-03
 3.20667e-03
 2.15086e-03
 1.48772e-03
 1.05831e-03
 7.73037e-04
 5.77970e-04
 4.40833e-04
 3.41874e-04
 2.68741e-04
 2.13993e-04
 1.72280e-04
 1.39198e-04
 1.12990e-04
 9.16477e-05
 7.41899e-05
 5.98569e-05
 4.83081e-05
 3.88911e-05
 3.16126e-05
 2.58867e-05
 2.13854e-05
 1.79028e-05
 1.51723e-05
 1.29364e-05
 1.10574e-05
 9.43549e-06
 8.00267e-06
 6.71624e-06
 5.55130e-06
 4.49414e-06
 3.53660e-06
 2.67086e-06
 1.94019e-06
 1.31310e-06
 7.70861e-07
 3.90939e-07
 1.45837e-07
 0.00000e+00
)


51
(
 0.00000e+00
 1.75656e-02
 2.67806e-01
 2.12842e+00
 4.85654e-02
 7.64877e-03
 2.27874e-01
 1.01683e-01
 5.00487e-02
 2.66336e-02
 1.49979e-02
 8.99541e-03
 5.58873e-03
 3.59139e-03
 2.38247e-03
 1.62887e-03
 1.14493e-03
 8.26523e-04
 6.11167e-04
 4.61533e-04
 3.54805e-04
 2.76810e-04
 2.19059e-04
 1.75516e-04
 1.41299e-04
 1.14427e-04
 9.26802e-05
 7.49565e-05
 6.04174e-05
 4.86889e-05
 3.91087e-05
 3.16935e-05
 2.58632e-05
 2.12928e-05
 1.77775e-05
 1.50437e-05
 1.28228e-05
 1.09689e-05
 9.37520e-06
 7.96893e-06
 6.70448e-06
 5.55582e-06
 4.50930e-06
 3.55749e-06
 2.69352e-06
 1.96060e-06
 1.32966e-06
 7.82631e-07
 3.97568e-07
 1.48660e-07
 0.00000e+00
)


51
(
 0.00000e+00
 2.61614e-02
 2.34468e-01
 1.86068e+00
 4.53129e-02
 7.79422e-03
 2.76787e-01
 1.23876e-01
 6.05991e-02
 3.19830e-02
 1.78815e-02
 1.05499e-02
 6.48663e-03
 4.13385e-03
 2.71760e-03
 1.83730e-03
 1.27478e-03
 9.07013e-04
 6.60927e-04
 4.92313e-04
 3.74230e-04
 2.89682e-04
 2.27506e-04
 1.80918e-04
 1.44995e-04
 1.16943e-04
 9.44923e-05
 7.63016e-05
 6.14514e-05
 4.94203e-05
 3.96741e-05
 3.20035e-05
 2.60229e-05
 2.13829e-05
 1.78035e-05
 1.50320e-05
 1.28121e-05
 1.09656e-05
 9.38828e-06
 8.00303e-06
 6.75134e-06
 5.60862e-06
 4.56796e-06
 3.61913e-06
 2.75787e-06
 1.99640e-06
 1.36084e-06
 8.18918e-07
 4.02832e-07
 1.63124e-07
 0.00000e+00
)


51
(
 0.00000e+00
 3.47572e-02
 2.01693e-01
 1.59775e+00
 4.18929e-02
 7.93093e-03
 3.30909e-01
 1.45751e-01
 7.05392e-02
 3.68914e-02
 2.04657e-02
 1.19186e-02
 7.26016e-03
 4.58972e-03
 2.99128e-03
 2.00152e-03
 1.37220e-03
 9.63269e-04
 6.92183e-04
 5.08679e-04
 3.82173e-04
 2.93175e-04
 2.28294e-04
 1.80085e-04
 1.43547e-04
 1.15249e-04
 9.28633e-05
 7.48565e-05
 6.02348e-05
 4.83614e-05
 3.87980e-05
 3.11791e-05
 2.52716e-05
 2.07235e-05
 1.72114e-05
 1.45057e-05
 1.23659e-05
 1.05937e-05
 9.08893e-06
 7.77192e-06
 6.57635e-06
 5.47910e-06
 4.47794e-06
 3.56175e-06
 2.72884e-06
 1.96975e-06
 1.34833e-06
 8.24483e-07
 3.96907e-07
 1.69633e-07
 0.00000e+00
)


51
(
 0.00000e+00
 5.35970e-02
 1.69912e-01
 1.34313e+00
 3.83161e-02
 8.05791e-03
 3.68420e-01
 1.61381e-01
 7.74855e-02
 4.01285e-02
 2.20279e-02
 1.26939e-02
 7.65463e-03
 4.79140e-03
 3.09102e-03
 2.04551e-03
 1.38527e-03
 9.59465e-04
 6.79737e-04
 4.92460e-04
 3.65021e-04
 2.76607e-04
 2.13027e-04
 1.66442e-04
 1.31637e-04
 1.05064e-04
 8.43193e-05
 6.78083e-05
 5.44908e-05
 4.37058e-05
 3.50183e-05
 2.80894e-05
 2.27138e-05
 1.85821e-05
 1.54057e-05
 1.29765e-05
 1.10718e-05
 9.50534e-06
 8.18068e-06
 7.02093e-06
 5.96408e-06
 4.98825e-06
 4.09105e-06
 3.26456e-06
 2.50895e-06
 1.81701e-06
 1.24659e-06
 7.64275e-07
 3.68906e-07
 1.57923e-07
 0.00000e+00
)


51
(
 0.00000e+00
 8.18550e-02
 1.39554e-01
 1.10032e+00
 3.45934e-02
 8.17416e-03
 3.98582e-01
 1.73925e-01
 8.28940e-02
 4.24977e-02
 2.30694e-02
 1.31460e-02
 7.84344e-03
 4.85988e-03
 3.10329e-03
 2.03133e-03
 1.35901e-03
 9.28486e-04
 6.48017e-04
 4.62189e-04
 3.37344e-04
 2.51969e-04
 1.91460e-04
 1.47796e-04
 1.15692e-04
 9.15845e-05
 7.30709e-05
 5.85450e-05
 4.69490e-05
 3.76107e-05
 3.01016e-05
 2.41107e-05
 1.94615e-05
 1.58941e-05
 1.31635e-05
 1.10913e-05
 9.48103e-06
 8.16599e-06
 7.05790e-06
 6.08587e-06
 5.19483e-06
 4.36524e-06
 3.59489e-06
 2.87944e-06
 2.22089e-06
 1.61439e-06
 1.11036e-06
 6.82730e-07
 3.30491e-07
 1.41724e-07
 0.00000e+00
)


51
(
 0.00000e+00
 1.39356e-01
 1.11050e-01
 8.72801e-01
 3.07357e-02
 8.27870e-03
 4.17362e-01
 1.81831e-01
 8.59572e-02
 4.35723e-02
 2.33572e-02
 1.31437e-02
 7.75031e-03
 4.74980e-03
 3.00092e-03
 1.94280e-03
 1.28407e-03
 8.65205e-04
 5.94451e-04
 4.16793e-04
 2.98908e-04
 2.19473e-04
 1.64033e-04
 1.24682e-04
 9.62580e-05
 7.53197e-05
 5.95599e-05
 4.74308e-05
 3.78997e-05
 3.03038e-05
 2.42274e-05
 1.93884e-05
 1.56360e-05
 1.27630e-05
 1.05747e-05
 8.92772e-06
 7.66001e-06
 6.63182e-06
 5.76712e-06
 5.00459e-06
 4.29872e-06
 3.63348e-06
 3.00731e-06
 2.41958e-06
 1.87398e-06
 1.36803e-06
 9.43588e-07
 5.82072e-07
 2.82645e-07
 1.21435e-07
 0.00000e+00
)


51
(
 0.00000e+00
 4.77809e-01
 8.48297e-02
 6.64081e-01
 2.67536e-02
 8.37052e-03
 4.21266e-01
 1.82952e-01
 8.57237e-02
 4.28821e-02
 2.26459e-02
 1.25543e-02
 7.30121e-03
 4.41874e-03
 2.75930e-03
 1.76587e-03
 1.15283e-03
 7.65951e-04
 5.17753e-04
 3.56354e-04
 2.50510e-04
 1.80240e-04
 1.31983e-04