/*--------------------------------*- C++ -*----------------------------------*\
| =========                 |                                                 |
| \      /  F ield          | OpenFOAM: The Open Source CFD Toolbox           |
|  \    /   O peration      | Version:  7                                     |
|   \  /    A nd            | Web:      http://www.OpenFOAM.com               |
|    \/     M anipulation   |                                                 |
\*---------------------------------------------------------------------------*/
FoamFile 
{   version     2.0;
    format      ascii;
    class       dictionary;
    location    "constant";
    object      LDMtable;
}
// * * * * * * * * * * * * * * * * * * * * * * * * * * * * * * * * * * * * * //

T_table
51
(

51
(
 2.94000e+02
 2.94000e+02
 2.94000e+02
 2.94000e+02
 2.94000e+02
 2.94007e+02
 2.94000e+02
 2.94000e+02
 2.94000e+02
 2.94000e+02
 2.94000e+02
 2.94000e+02
 2.94000e+02
 2.94000e+02
 2.94000e+02
 2.94000e+02
 2.94000e+02
 2.94000e+02
 2.94000e+02
 2.94000e+02
 2.94000e+02
 2.94000e+02
 2.94000e+02
 2.94000e+02
 2.94000e+02
 2.94000e+02
 2.94000e+02
 2.94000e+02
 2.94000e+02
 2.94000e+02
 2.94000e+02
 2.94000e+02
 2.94000e+02
 2.94000e+02
 2.94000e+02
 2.94000e+02
 2.94000e+02
 2.94000e+02
 2.94000e+02
 2.94000e+02
 2.94000e+02
 2.94000e+02
 2.94000e+02
 2.94000e+02
 2.94000e+02
 2.94000e+02
 2.94000e+02
 2.94000e+02
 2.94000e+02
 2.94000e+02
 2.94000e+02
)


51
(
 2.94000e+02
 3.09488e+02
 2.94544e+02
 2.94685e+02
 2.94605e+02
 3.01220e+02
 3.32905e+02
 3.30740e+02
 3.28571e+02
 3.26493e+02
 3.24531e+02
 3.22685e+02
 3.20988e+02
 3.19478e+02
 3.20974e+02
 3.19787e+02
 3.18655e+02
 3.17573e+02
 3.16537e+02
 3.15542e+02
 3.14584e+02
 3.13660e+02
 3.12768e+02
 3.11905e+02
 3.11067e+02
 3.10254e+02
 3.09463e+02
 3.08692e+02
 3.07939e+02
 3.07204e+02
 3.06484e+02
 3.05779e+02
 3.05087e+02
 3.04407e+02
 3.03738e+02
 3.03080e+02
 3.02430e+02
 3.01790e+02
 3.01157e+02
 3.00531e+02
 2.99912e+02
 2.99298e+02
 2.98691e+02
 2.98089e+02
 2.97491e+02
 2.96899e+02
 2.96311e+02
 2.95726e+02
 2.95147e+02
 2.94572e+02
 2.94000e+02
)


51
(
 2.94000e+02
 3.24975e+02
 2.99593e+02
 3.01037e+02
 2.99913e+02
 3.12747e+02
 3.71810e+02
 3.67480e+02
 3.63142e+02
 3.58985e+02
 3.55063e+02
 3.51371e+02
 3.47975e+02
 3.44955e+02
 3.47949e+02
 3.45574e+02
 3.43310e+02
 3.41146e+02
 3.39074e+02
 3.37084e+02
 3.35168e+02
 3.33320e+02
 3.31535e+02
 3.29810e+02
 3.28134e+02
 3.26508e+02
 3.24926e+02
 3.23384e+02
 3.21879e+02
 3.20409e+02
 3.18968e+02
 3.17559e+02
 3.16175e+02
 3.14814e+02
 3.13476e+02
 3.12159e+02
 3.10861e+02
 3.09579e+02
 3.08313e+02
 3.07061e+02
 3.05823e+02
 3.04597e+02
 3.03382e+02
 3.02177e+02
 3.00981e+02
 2.99797e+02
 2.98621e+02
 2.97452e+02
 2.96294e+02
 2.95144e+02
 2.94000e+02
)


51
(
 2.94000e+02
 3.40463e+02
 3.09651e+02
 3.13688e+02
 3.10439e+02
 3.27148e+02
 4.10715e+02
 4.04219e+02
 3.97713e+02
 3.91478e+02
 3.85594e+02
 3.80056e+02
 3.74963e+02
 3.70433e+02
 3.74923e+02
 3.71361e+02
 3.67965e+02
 3.64720e+02
 3.61611e+02
 3.58626e+02
 3.55752e+02
 3.52980e+02
 3.50303e+02
 3.47714e+02
 3.45201e+02
 3.42762e+02
 3.40388e+02
 3.38076e+02
 3.35818e+02
 3.33613e+02
 3.31452e+02
 3.29338e+02
 3.27262e+02
 3.25221e+02
 3.23214e+02
 3.21239e+02
 3.19291e+02
 3.17369e+02
 3.15470e+02
 3.13592e+02
 3.11735e+02
 3.09895e+02
 3.08073e+02
 3.06266e+02
 3.04472e+02
 3.02696e+02
 3.00932e+02
 2.99178e+02
 2.97441e+02
 2.95716e+02
 2.94000e+02
)


51
(
 2.94000e+02
 3.55951e+02
 3.24367e+02
 3.32191e+02
 3.25820e+02
 3.44231e+02
 4.49621e+02
 4.40959e+02
 4.32284e+02
 4.23970e+02
 4.16125e+02
 4.08742e+02
 4.01951e+02
 3.95910e+02
 4.01897e+02
 3.97148e+02
 3.92620e+02
 3.88293e+02
 3.84148e+02
 3.80168e+02
 3.76337e+02
 3.72640e+02
 3.69070e+02
 3.65619e+02
 3.62268e+02
 3.59016e+02
 3.55851e+02
 3.52768e+02
 3.49757e+02
 3.46818e+02
 3.43936e+02
 3.41117e+02
 3.38350e+02
 3.35628e+02
 3.32952e+02
 3.30319e+02
 3.27722e+02
 3.25158e+02
 3.22626e+02
 3.20123e+02
 3.17646e+02
 3.15194e+02
 3.12764e+02
 3.10354e+02
 3.07962e+02
 3.05594e+02
 3.03243e+02
 3.00904e+02
 2.98588e+02
 2.96288e+02
 2.94000e+02
)


51
(
 2.94000e+02
 3.69079e+02
 3.43390e+02
 3.56098e+02
 3.45690e+02
 3.63806e+02
 4.88526e+02
 4.77699e+02
 4.66855e+02
 4.56463e+02
 4.46656e+02
 4.37427e+02
 4.28939e+02
 4.21388e+02
 4.28872e+02
 4.22935e+02
 4.17275e+02
 4.11866e+02
 4.06685e+02
 4.01710e+02
 3.96921e+02
 3.92300e+02
 3.87838e+02
 3.83524e+02
 3.79335e+02
 3.75270e+02
 3.71314e+02
 3.67460e+02
 3.63697e+02
 3.60022e+02
 3.56420e+02
 3.52897e+02
 3.49437e+02
 3.46035e+02
 3.42690e+02
 3.39398e+02
 3.36152e+02
 3.32948e+02
 3.29783e+02
 3.26654e+02
 3.23558e+02
 3.20492e+02
 3.17455e+02
 3.14443e+02
 3.11453e+02
 3.08493e+02
 3.05554e+02
 3.02630e+02
 2.99735e+02
 2.96860e+02
 2.94000e+02
)


51
(
 2.94000e+02
 3.80859e+02
 3.66368e+02
 3.84964e+02
 3.69685e+02
 3.85679e+02
 5.27431e+02
 5.14439e+02
 5.01426e+02
 4.88956e+02
 4.77188e+02
 4.66113e+02
 4.55926e+02
 4.46865e+02
 4.55846e+02
 4.48722e+02
 4.41930e+02
 4.35439e+02
 4.29222e+02
 4.23252e+02
 4.17505e+02
 4.11960e+02
 4.06606e+02
 4.01429e+02
 3.96402e+02
 3.91524e+02
 3.86777e+02
 3.82151e+02
 3.77636e+02
 3.73227e+02
 3.68904e+02
 3.64676e+02
 3.60524e+02
 3.56442e+02
 3.52428e+02
 3.48478e+02
 3.44582e+02
 3.40737e+02
 3.36939e+02
 3.33184e+02
 3.29469e+02
 3.25791e+02
 3.22146e+02
 3.18531e+02
 3.14943e+02
 3.11392e+02
 3.07864e+02
 3.04356e+02
 3.00883e+02
 2.97432e+02
 2.94000e+02
)


51
(
 2.94000e+02
 3.93282e+02
 3.92949e+02
 4.18341e+02
 3.97441e+02
 4.09662e+02
 5.66336e+02
 5.51179e+02
 5.35997e+02
 5.21448e+02
 5.07719e+02
 4.94798e+02
 4.82914e+02
 4.72343e+02
 4.82821e+02
 4.74509e+02
 4.66584e+02
 4.59013e+02
 4.51759e+02
 4.44794e+02
 4.38089e+02
 4.31620e+02
 4.25373e+02
 4.19333e+02
 4.13469e+02
 4.07778e+02
 4.02240e+02
 3.96843e+02
 3.91575e+02
 3.86431e+02
 3.81388e+02
 3.76455e+02
 3.71612e+02
 3.66849e+02
 3.62166e+02
 3.57558e+02
 3.53013e+02
 3.48527e+02
 3.44096e+02
 3.39715e+02
 3.35381e+02
 3.31089e+02
 3.26837e+02
 3.22620e+02
 3.18434e+02
 3.14290e+02
 3.10175e+02
 3.06083e+02
 3.02030e+02
 2.98005e+02
 2.94000e+02
)


51
(
 2.94000e+02
 4.06283e+02
 4.22783e+02
 4.55782e+02
 4.28593e+02
 4.35561e+02
 6.05241e+02
 5.87918e+02
 5.70568e+02
 5.53941e+02
 5.38250e+02
 5.23483e+02
 5.09902e+02
 4.97820e+02
 5.09795e+02
 5.00295e+02
 4.91239e+02
 4.82586e+02
 4.74296e+02
 4.66336e+02
 4.58673e+02
 4.51280e+02
 4.44141e+02
 4.37238e+02
 4.30536e+02
 4.24032e+02
 4.17703e+02
 4.11535e+02
 4.05515e+02
 3.99636e+02
 3.93872e+02
 3.88235e+02
 3.82699e+02
 3.77256e+02
 3.71904e+02
 3.66637e+02
 3.61443e+02
 3.56317e+02
 3.51252e+02
 3.46246e+02
 3.41292e+02
 3.36388e+02
 3.31528e+02
 3.26708e+02
 3.21925e+02
 3.17189e+02
 3.12486e+02
 3.07809e+02
 3.03177e+02
 2.98577e+02
 2.94000e+02
)


51
(
 2.94000e+02
 4.19638e+02
 4.55517e+02
 4.96840e+02
 4.62777e+02
 4.63187e+02
 6.42089e+02
 6.24658e+02
 6.05140e+02
 5.86434e+02
 5.68781e+02
 5.52169e+02
 5.36889e+02
 5.23298e+02
 5.36769e+02
 5.26082e+02
 5.15894e+02
 5.06159e+02
 4.96833e+02
 4.87878e+02
 4.79257e+02
 4.70940e+02
 4.62908e+02
 4.55143e+02
 4.47603e+02
 4.40286e+02
 4.33165e+02
 4.26227e+02
 4.19454e+02
 4.12840e+02
 4.06356e+02
 4.00014e+02
 3.93787e+02
 3.87663e+02
 3.81642e+02
 3.75717e+02
 3.69874e+02
 3.64106e+02
 3.58409e+02
 3.52776e+02
 3.47204e+02
 3.41686e+02
 3.36219e+02
 3.30797e+02
 3.25415e+02
 3.20087e+02
 3.14797e+02
 3.09535e+02
 3.04324e+02
 2.99149e+02
 2.94000e+02
)


51
(
 2.94000e+02
 4.33227e+02
 4.90801e+02
 5.41068e+02
 4.99628e+02
 4.92346e+02
 6.67798e+02
 6.61398e+02
 6.39711e+02
 6.18926e+02
 5.99313e+02
 5.80854e+02
 5.63877e+02
 5.48776e+02
 5.63744e+02
 5.51869e+02
 5.40549e+02
 5.29732e+02
 5.19370e+02
 5.09420e+02
 4.99841e+02
 4.90600e+02
 4.81676e+02
 4.73048e+02
 4.64670e+02
 4.56540e+02
 4.48628e+02
 4.40919e+02
 4.33393e+02
 4.26045e+02
 4.18840e+02
 4.11793e+02
 4.04874e+02
 3.98070e+02
 3.91380e+02
 3.84797e+02
 3.78304e+02
 3.71896e+02
 3.65565e+02
 3.59307e+02
 3.53115e+02
 3.46985e+02
 3.40910e+02
 3.34885e+02
 3.28906e+02
 3.22986e+02
 3.17107e+02
 3.11261e+02
 3.05471e+02
 2.99721e+02
 2.94000e+02
)


51
(
 2.94000e+02
 4.47049e+02
 5.28282e+02
 5.88019e+02
 5.38782e+02
 5.22849e+02
 6.94168e+02
 6.91720e+02
 6.74282e+02
 6.51419e+02
 6.29844e+02
 6.09540e+02
 5.90865e+02
 5.74253e+02
 5.90718e+02
 5.77656e+02
 5.65204e+02
 5.53306e+02
 5.41907e+02
 5.30962e+02
 5.20425e+02
 5.10260e+02
 5.00444e+02
 4.90953e+02
 4.81736e+02
 4.72794e+02
 4.64091e+02
 4.55611e+02
 4.47333e+02
 4.39249e+02
 4.31324e+02
 4.23573e+02
 4.15961e+02
 4.08476e+02
 4.01118e+02
 3.93876e+02
 3.86735e+02
 3.79685e+02
 3.72722e+02
 3.65838e+02
 3.59027e+02
 3.52283e+02
 3.45601e+02
 3.38974e+02
 3.32396e+02
 3.25885e+02
 3.19418e+02
 3.12987e+02
 3.06618e+02
 3.00293e+02
 2.94000e+02
)


51
(
 2.94000e+02
 4.61092e+02
 5.67610e+02
 6.37247e+02
 5.79874e+02
 5.54504e+02
 7.21253e+02
 7.15651e+02
 7.08853e+02
 6.83911e+02
 6.60375e+02
 6.38225e+02
 6.17852e+02
 5.99731e+02
 6.17692e+02
 6.03443e+02
 5.89859e+02
 5.76879e+02
 5.64444e+02
 5.52503e+02
 5.41010e+02
 5.29920e+02
 5.19211e+02
 5.08857e+02
 4.98803e+02
 4.89048e+02
 4.79554e+02
 4.70303e+02
 4.61272e+02
 4.52453e+02
 4.43809e+02
 4.35352e+02
 4.27049e+02
 4.18883e+02
 4.10856e+02
 4.02956e+02
 3.95165e+02
 3.87475e+02
 3.79878e+02
 3.72368e+02
 3.64938e+02
 3.57582e+02
 3.50292e+02
 3.43062e+02
 3.35887e+02
 3.28783e+02
 3.21729e+02
 3.14713e+02
 3.07765e+02
 3.00865e+02
 2.94000e+02
)


51
(
 2.94000e+02
 4.75239e+02
 6.08433e+02
 6.88304e+02
 6.22540e+02
 5.87119e+02
 7.48651e+02
 7.40129e+02
 7.34261e+02
 7.16404e+02
 6.90907e+02
 6.66911e+02
 6.44840e+02
 6.25208e+02
 6.44667e+02
 6.29230e+02
 6.14514e+02
 6.00452e+02
 5.86981e+02
 5.74045e+02
 5.61594e+02
 5.49580e+02
 5.37979e+02
 5.26762e+02
 5.15870e+02
 5.05302e+02
 4.95017e+02
 4.84995e+02
 4.75211e+02
 4.65658e+02
 4.56293e+02
 4.47131e+02
 4.38136e+02
 4.29290e+02
 4.20594e+02
 4.12036e+02
 4.03595e+02
 3.95264e+02
 3.87035e+02
 3.78899e+02
 3.70850e+02
 3.62880e+02
 3.54983e+02
 3.47151e+02
 3.39377e+02
 3.31682e+02
 3.24039e+02
 3.16439e+02
 3.08912e+02
 3.01437e+02
 2.94000e+02
)


51
(
 2.94000e+02
 4.89775e+02
 6.50399e+02
 7.40744e+02
 6.66415e+02
 6.20504e+02
 7.76626e+02
 7.65087e+02
 7.56435e+02
 7.48897e+02
 7.21438e+02
 6.95596e+02
 6.71828e+02
 6.50686e+02
 6.71641e+02
 6.55017e+02
 6.39169e+02
 6.24025e+02
 6.09518e+02
 5.95587e+02
 5.82178e+02
 5.69240e+02
 5.56746e+02
 5.44667e+02
 5.32937e+02
 5.21556e+02
 5.10479e+02
 4.99687e+02
 4.89151e+02
 4.78862e+02
 4.68777e+02
 4.58911e+02
 4.49224e+02
 4.39697e+02
 4.30332e+02
 4.21115e+02
 4.12026e+02
 4.03054e+02
 3.94191e+02
 3.85430e+02
 3.76761e+02
 3.68178e+02
 3.59674e+02
 3.51240e+02
 3.42868e+02
 3.34580e+02
 3.26350e+02
 3.18165e+02
 3.10059e+02
 3.02009e+02
 2.94000e+02
)


51
(
 2.94000e+02
 5.04413e+02
 6.93156e+02
 7.94119e+02
 7.11136e+02
 6.54467e+02
 8.04822e+02
 7.90415e+02
 7.79032e+02
 7.70821e+02
 7.51969e+02
 7.24281e+02
 6.98816e+02
 6.76163e+02
 6.98615e+02
 6.80804e+02
 6.63824e+02
 6.47599e+02
 6.32055e+02
 6.17129e+02
 6.02762e+02
 5.88901e+02
 5.75514e+02
 5.62572e+02
 5.50004e+02
 5.37810e+02
 5.25942e+02
 5.14379e+02
 5.03090e+02
 4.92067e+02
 4.81261e+02
 4.70690e+02
 4.60311e+02
 4.50104e+02
 4.40070e+02
 4.30195e+02
 4.20456e+02
 4.10844e+02
 4.01348e+02
 3.91961e+02
 3.82673e+02
 3.73477e+02
 3.64365e+02
 3.55328e+02
 3.46359e+02
 3.37479e+02
 3.28661e+02
 3.19891e+02
 3.11206e+02
 3.02581e+02
 2.94000e+02
)


51
(
 2.94000e+02
 5.19263e+02
 7.36355e+02
 8.47983e+02
 7.56336e+02
 6.88816e+02
 8.33384e+02
 8.15905e+02
 8.01871e+02
 7.91293e+02
 7.82500e+02
 7.52967e+02
 7.25803e+02
 7.01641e+02
 7.25590e+02
 7.06591e+02
 6.88479e+02
 6.71172e+02
 6.54592e+02
 6.38671e+02
 6.23346e+02
 6.08561e+02
 5.94282e+02
 5.80476e+02
 5.67071e+02
 5.54064e+02
 5.41405e+02
 5.29070e+02
 5.17029e+02
 5.05271e+02
 4.93745e+02
 4.82470e+02
 4.71398e+02
 4.60511e+02
 4.49808e+02
 4.39275e+02
 4.28887e+02
 4.18633e+02
 4.08504e+02
 3.98491e+02
 3.88585e+02
 3.78775e+02
 3.69056e+02
 3.59417e+02
 3.49849e+02
 3.40378e+02
 3.30972e+02
 3.21617e+02
 3.12353e+02
 3.03153e+02
 2.94000e+02
)


51
(
 2.94000e+02
 5.34558e+02
 7.79642e+02
 9.01889e+02
 8.01653e+02
 7.23361e+02
 8.61947e+02
 8.41842e+02
 8.25163e+02
 8.12041e+02
 8.02050e+02
 7.81652e+02
 7.52791e+02
 7.27118e+02
 7.52564e+02
 7.32378e+02
 7.13134e+02
 6.94745e+02
 6.77130e+02
 6.60213e+02
 6.43930e+02
 6.28221e+02
 6.13049e+02
 5.98381e+02
 5.84138e+02
 5.70318e+02
 5.56868e+02
 5.43762e+02
 5.30969e+02
 5.18476e+02
 5.06229e+02
 4.94249e+02
 4.82486e+02
 4.70918e+02
 4.59546e+02
 4.48354e+02
 4.37317e+02
 4.26423e+02
 4.15661e+02
 4.05022e+02
 3.94496e+02
 3.84074e+02
 3.73747e+02
 3.63505e+02
 3.53340e+02
 3.43276e+02
 3.33282e+02
 3.23343e+02
 3.13500e+02
 3.03725e+02
 2.94000e+02
)


51
(
 2.94000e+02
 5.50304e+02
 8.22666e+02
 9.55389e+02
 8.46722e+02
 7.57910e+02
 8.90512e+02
 8.67825e+02
 8.48455e+02
 8.32899e+02
 8.20827e+02
 8.10338e+02
 7.79779e+02
 7.52596e+02
 7.79538e+02
 7.58165e+02
 7.37789e+02
 7.18318e+02
 6.99667e+02
 6.81755e+02
 6.64514e+02
 6.47881e+02
 6.31817e+02
 6.16286e+02
 6.01205e+02
 5.86572e+02
 5.72331e+02
 5.58454e+02
 5.44908e+02
 5.31680e+02
 5.18713e+02
 5.06028e+02
 4.93573e+02
 4.81325e+02
 4.69284e+02
 4.57434e+02
 4.45747e+02
 4.34212e+02
 4.22818e+02
 4.11553e+02
 4.00408e+02
 3.89372e+02
 3.78438e+02
 3.67594e+02
 3.56830e+02
 3.46175e+02
 3.35593e+02
 3.25069e+02
 3.14648e+02
 3.04297e+02
 2.94000e+02
)


51
(
 2.94000e+02
 5.66337e+02
 8.65077e+02
 1.00804e+03
 8.91177e+02
 7.92271e+02
 9.19078e+02
 8.93919e+02
 8.71970e+02
 8.54074e+02
 8.39722e+02
 8.27753e+02
 8.06766e+02
 7.78074e+02
 8.06513e+02
 7.83952e+02
 7.62443e+02
 7.41892e+02
 7.22204e+02
 7.03297e+02
 6.85099e+02
 6.67541e+02
 6.50584e+02
 6.34191e+02
 6.18272e+02
 6.02826e+02
 5.87794e+02
 5.73146e+02
 5.58847e+02
 5.44885e+02
 5.31197e+02
 5.17808e+02
 5.04660e+02
 4.91732e+02
 4.79022e+02
 4.66514e+02
 4.54178e+02
 4.42002e+02
 4.29974e+02
 4.18083e+02
 4.06319e+02
 3.94671e+02
 3.83129e+02
 3.71682e+02
 3.60321e+02
 3.49073e+02
 3.37904e+02
 3.26796e+02
 3.15795e+02
 3.04869e+02
 2.94000e+02
)


51
(
 2.94000e+02
 5.83069e+02
 9.06522e+02
 1.05939e+03
 9.34655e+02
 8.26254e+02
 9.47644e+02
 9.20014e+02
 8.95606e+02
 8.75285e+02
 8.58695e+02
 8.44750e+02
 8.32328e+02
 8.03551e+02
 8.33487e+02
 8.09739e+02
 7.87098e+02
 7.65465e+02
 7.44741e+02
 7.24839e+02
 7.05683e+02
 6.87201e+02
 6.69352e+02
 6.52096e+02
 6.35339e+02
 6.19080e+02
 6.03256e+02
 5.87838e+02
 5.72787e+02
 5.58089e+02
 5.43681e+02
 5.29587e+02
 5.15748e+02
 5.02139e+02
 4.88760e+02
 4.75593e+02
 4.62608e+02
 4.49791e+02
 4.37131e+02
 4.24614e+02
 4.12231e+02
 3.99969e+02
 3.87820e+02
 3.75771e+02
 3.63811e+02
 3.51972e+02
 3.40215e+02
 3.28522e+02
 3.16942e+02
 3.05441e+02
 2.94000e+02
)


51
(
 2.94000e+02
 6.00084e+02
 9.46651e+02
 1.10899e+03
 9.76791e+02
 8.59668e+02
 9.75940e+02
 9.99925e+02
 9.53781e+02
 8.98640e+02
 9.11525e+02
 8.81452e+02
 8.47522e+02
 8.29029e+02
 8.60462e+02
 8.35526e+02
 8.11753e+02
 7.89038e+02
 7.67278e+02
 7.46381e+02
 7.26267e+02
 7.06861e+02
 6.88120e+02
 6.70000e+02
 6.52406e+02
 6.35334e+02
 6.18719e+02
 6.02530e+02
 5.86726e+02
 5.71294e+02
 5.56165e+02
 5.41366e+02
 5.26835e+02
 5.12546e+02
 4.98498e+02
 4.84673e+02
 4.71039e+02
 4.57581e+02
 4.44287e+02
 4.31145e+02
 4.18142e+02
 4.05268e+02
 3.92511e+02
 3.79859e+02
 3.67302e+02
 3.54871e+02
 3.42525e+02
 3.30248e+02
 3.18089e+02
 3.06014e+02
 2.94000e+02
)


51
(
 2.94000e+02
 6.17478e+02
 9.85111e+02
 1.15640e+03
 1.01722e+03
 8.92320e+02
 1.00422e+03
 1.09764e+03
 1.05866e+03
 1.01826e+03
 9.93628e+02
 9.61425e+02
 9.22928e+02
 8.97353e+02
 8.87436e+02
 8.61313e+02
 8.36408e+02
 8.12611e+02
 7.89815e+02
 7.67923e+02
 7.46851e+02
 7.26521e+02
 7.06887e+02
 6.87905e+02
 6.69473e+02
 6.51588e+02
 6.34182e+02
 6.17222e+02
 6.00666e+02
 5.84498e+02
 5.68649e+02
 5.53146e+02
 5.37923e+02
 5.22953e+02
 5.08236e+02
 4.93753e+02
 4.79469e+02
 4.65371e+02
 4.51444e+02
 4.37676e+02
 4.24054e+02
 4.10566e+02
 3.97201e+02
 3.83948e+02
 3.70792e+02
 3.57769e+02
 3.44836e+02
 3.31974e+02
 3.19236e+02
 3.06586e+02
 2.94000e+02
)


51
(
 2.94000e+02
 6.35441e+02
 1.02155e+03
 1.20117e+03
 1.05558e+03
 9.24019e+02
 1.14238e+03
 1.05979e+03
 1.00855e+03
 9.86024e+02
 1.01015e+03
 9.77623e+02
 9.46861e+02
 9.17745e+02
 8.90132e+02
 8.36165e+02
 8.14321e+02
 7.94396e+02
 7.92048e+02
 7.70055e+02
 7.48886e+02
 7.28463e+02
 7.08739e+02
 6.89670e+02
 6.71153e+02
 6.53186e+02
 6.35700e+02
 6.18661e+02
 6.02029e+02
 5.85787e+02
 5.69865e+02
 5.54290e+02
 5.38998e+02
 5.23960e+02
 5.09175e+02
 4.94627e+02
 4.80278e+02
 4.66116e+02
 4.52127e+02
 4.38298e+02
 4.24616e+02
 4.11069e+02
 3.97646e+02
 3.84335e+02
 3.71122e+02
 3.58043e+02
 3.45054e+02
 3.32137e+02
 3.19344e+02
 3.06640e+02
 2.94000e+02
)


51
(
 2.94000e+02
 6.53937e+02
 1.05562e+03
 1.24285e+03
 1.09150e+03
 9.54575e+02
 1.11205e+03
 1.09297e+03
 1.05500e+03
 1.01942e+03
 9.85998e+02
 9.54626e+02
 9.07876e+02
 8.78000e+02
 8.70306e+02
 8.37650e+02
 8.18107e+02
 7.96169e+02
 7.74459e+02
 7.53382e+02
 7.33009e+02
 7.13318e+02
 6.94284e+02
 6.75872e+02
 6.57989e+02
 6.40631e+02
 6.23735e+02
 6.07269e+02
 5.91193e+02
 5.75493e+02
 5.60102e+02
 5.45046e+02
 5.30264e+02
 5.15728e+02
 5.01439e+02
 4.87379e+02
 4.73516e+02
 4.59836e+02
 4.46326e+02
 4.32975e+02
 4.19770e+02
 4.06701e+02
 3.93756e+02
 3.80924e+02
 3.68193e+02
 3.55597e+02
 3.43095e+02
 3.30665e+02
 3.18362e+02
 3.06148e+02
 2.94000e+02
)


51
(
 2.94000e+02
 6.72762e+02
 1.08841e+03
 1.28181e+03
 1.12639e+03
 9.85109e+02
 1.17635e+03
 1.11887e+03
 1.08087e+03
 1.04604e+03
 1.01272e+03
 9.60597e+02
 9.50519e+02
 9.21583e+02
 8.94025e+02
 8.43533e+02
 8.42668e+02
 8.18672e+02
 7.95668e+02
 7.73567e+02
 7.52286e+02
 7.31750e+02
 7.11913e+02
 6.92732e+02
 6.74105e+02
 6.56029e+02
 6.38436e+02
 6.21292e+02
 6.04555e+02
 5.88210e+02
 5.72185e+02
 5.56510e+02
 5.41116e+02
 5.25976e+02
 5.11090e+02
 4.96439e+02
 4.81987e+02
 4.67721e+02
 4.53626e+02
 4.39688e+02
 4.25896e+02
 4.12236e+02
 3.98697e+02
 3.85267e+02
 3.71933e+02
 3.58727e+02
 3.45609e+02
 3.32559e+02
 3.19629e+02
 3.06783e+02
 2.94000e+02
)


51
(
 2.94000e+02
 6.91587e+02
 1.12276e+03
 1.31967e+03
 1.16369e+03
 1.01818e+03
 1.25284e+03
 1.08217e+03
 1.15315e+03
 1.12221e+03
 1.08522e+03
 1.04978e+03
 1.00225e+03
 9.83951e+02
 8.75817e+02
 9.08843e+02
 8.92646e+02
 8.69067e+02
 8.44683e+02
 8.20707e+02
 7.97441e+02
 7.74938e+02
 7.53195e+02
 7.32178e+02
 7.11778e+02
 6.91994e+02
 6.72747e+02
 6.54000e+02
 6.35704e+02
 6.17840e+02
 6.00329e+02
 5.83199e+02
 5.66375e+02
 5.49825e+02
 5.33547e+02
 5.17517e+02
 5.01697e+02
 4.86067e+02
 4.70611e+02
 4.55312e+02
 4.40154e+02
 4.25124e+02
 4.10206e+02
 3.95386e+02
 3.80651e+02
 3.66026e+02
 3.51474e+02
 3.36980e+02
 3.22587e+02
 3.08266e+02
 2.94000e+02
)


51
(
 2.94000e+02
 7.10982e+02
 1.15853e+03
 1.35661e+03
 1.20318e+03
 1.05355e+03
 1.31632e+03
 1.20456e+03
 1.12081e+03
 1.02897e+03
 1.00013e+03
 9.90316e+02
 9.38520e+02
 9.22443e+02
 8.83645e+02
 8.66404e+02
 8.40972e+02
 8.16826e+02
 7.93776e+02
 7.71684e+02
 7.50443e+02
 7.29962e+02
 7.10191e+02
 6.91082e+02
 6.72528e+02
 6.54527e+02
 6.37008e+02
 6.19939e+02
 6.03276e+02
 5.87002e+02
 5.71050e+02
 5.55442e+02
 5.40117e+02
 5.25045e+02
 5.10224e+02
 4.95638e+02
 4.81250e+02
 4.67045e+02
 4.53010e+02
 4.39132e+02
 4.25397e+02
 4.11794e+02
 3.98311e+02
 3.84935e+02
 3.71653e+02
 3.58498e+02
 3.45429e+02
 3.32427e+02
 3.19542e+02
 3.06741e+02
 2.94000e+02
)


51
(
 2.94000e+02
 7.30494e+02
 1.19550e+03
 1.39276e+03
 1.24451e+03
 1.09086e+03
 1.34317e+03
 1.29305e+03
 1.24456e+03
 1.19894e+03
 1.04306e+03
 9.93431e+02
 9.49631e+02
 9.21240e+02
 8.93527e+02
 8.67314e+02
 8.42258e+02
 8.18281e+02
 7.95294e+02
 7.73212e+02
 7.51952e+02
 7.31439e+02
 7.11627e+02
 6.92473e+02
 6.73872e+02
 6.55824e+02
 6.38257e+02
 6.21140e+02
 6.04428e+02
 5.88107e+02
 5.72106e+02
 5.56452e+02
 5.41078e+02
 5.25958e+02
 5.11089e+02
 4.96454e+02
 4.82016e+02
 4.67762e+02
 4.53677e+02
 4.39748e+02
 4.25961e+02
 4.12306e+02
 3.98769e+02
 3.85339e+02
 3.72002e+02
 3.58791e+02
 3.45665e+02
 3.32606e+02
 3.19662e+02
 3.06801e+02
 2.94000e+02
)


51
(
 2.94000e+02
 7.50006e+02
 1.23343e+03
 1.42826e+03
 1.28732e+03
 1.12978e+03
 1.36912e+03
 1.31761e+03
 1.26778e+03
 1.22090e+03
 1.13074e+03
 1.08585e+03
 1.04391e+03
 1.00676e+03
 9.72595e+02
 9.40663e+02
 9.11328e+02
 8.83838e+02
 8.57754e+02
 8.32824e+02
 8.08890e+02
 7.85834e+02
 7.63597e+02
 7.42120e+02
 7.21282e+02
 7.01080e+02
 6.81432e+02
 6.62297e+02
 6.43626e+02
 6.25398e+02
 6.07532e+02
 5.90054e+02
 5.72890e+02
 5.56004e+02
 5.39394e+02
 5.23035e+02
 5.06885e+02
 4.90925e+02
 4.75138e+02
 4.59506e+02
 4.44010e+02
 4.28635e+02
 4.13366e+02
 3.98188e+02
 3.83086e+02
 3.68082e+02
 3.53141e+02
 3.38249e+02
 3.23441e+02
 3.08697e+02
 2.94000e+02
)


51
(
 2.94000e+02
 7.69518e+02
 1.27209e+03
 1.46324e+03
 1.33127e+03
 1.16995e+03
 1.39493e+03
 1.34185e+03
 1.29062e+03
 1.24250e+03
 1.19748e+03
 1.15548e+03
 1.11602e+03
 1.07886e+03
 1.04377e+03
 1.01054e+03
 9.78943e+02
 9.48809e+02
 9.19989e+02
 8.92360e+02
 8.65811e+02
 8.40240e+02
 8.15587e+02
 7.91792e+02
 7.68720e+02
 7.46364e+02
 7.24635e+02
 7.03483e+02
 6.82852e+02
 6.62718e+02
 6.42987e+02
 6.23687e+02
 6.04733e+02
 5.86084e+02
 5.67733e+02
 5.49651e+02
 5.31791e+02
 5.14128e+02
 4.96641e+02
 4.79306e+02
 4.62102e+02
 4.45009e+02
 4.28007e+02
 4.11079e+02
 3.94211e+02
 3.77410e+02
 3.60648e+02
 3.43918e+02
 3.27239e+02
 3.10604e+02
 2.94000e+02
)


51
(
 2.94000e+02
 7.89123e+02
 1.31124e+03
 1.49783e+03
 1.37599e+03
 1.21104e+03
 1.41946e+03
 1.36507e+03
 1.31256e+03
 1.26324e+03
 1.21712e+03
 1.17411e+03
 1.13371e+03
 1.09569e+03
 1.05979e+03
 1.02580e+03
 9.93509e+02
 9.62726e+02
 9.33289e+02
 9.05072e+02
 8.77961e+02
 8.51851e+02
 8.26683e+02
 8.02395e+02
 7.78848e+02
 7.56036e+02
 7.33865e+02
 7.12287e+02
 6.91243e+02
 6.70708e+02
 6.50585e+02
 6.30903e+02
 6.11573e+02
 5.92554e+02
 5.73840e+02
 5.55398e+02
 5.37179e+02
 5.19160e+02
 5.01315e+02
 4.83622e+02
 4.66057e+02
 4.48599e+02
 4.31228e+02
 4.13925e+02
 3.96676e+02
 3.79485e+02
 3.62324e+02
 3.45189e+02
 3.28094e+02
 3.11034e+02
 2.94000e+02
)


51
(
 2.94000e+02
 8.08752e+02
 1.35065e+03
 1.53216e+03
 1.42114e+03
 1.25270e+03
 1.44399e+03
 1.38828e+03
 1.33446e+03
 1.28394e+03
 1.23672e+03
 1.19269e+03
 1.15136e+03
 1.11247e+03
 1.07577e+03
 1.04103e+03
 1.00804e+03
 9.76606e+02
 9.46554e+02
 9.17750e+02
 8.90078e+02
 8.63432e+02
 8.37751e+02
 8.12970e+02
 7.88949e+02
 7.65682e+02
 7.43071e+02
 7.21069e+02
 6.99612e+02
 6.78676e+02
 6.58162e+02
 6.38099e+02
 6.18395e+02
 5.99008e+02
 5.79930e+02
 5.61129e+02
 5.42553e+02
 5.24178e+02
 5.05977e+02
 4.87927e+02
 4.70002e+02
 4.52181e+02
 4.34442e+02
 4.16765e+02
 3.99136e+02
 3.81555e+02
 3.63997e+02
 3.46457e+02
 3.28946e+02
 3.11463e+02
 2.94000e+02
)


51
(
 2.94000e+02
 8.28382e+02
 1.39008e+03
 1.56636e+03
 1.46636e+03
 1.29457e+03
 1.46767e+03
 1.41054e+03
 1.35549e+03
 1.30382e+03
 1.25554e+03
 1.21054e+03
 1.16830e+03
 1.12857e+03
 1.09109e+03
 1.05563e+03
 1.02196e+03
 9.89898e+02
 9.59259e+02
 9.29894e+02
 9.01685e+02
 8.74524e+02
 8.48350e+02
 8.23098e+02
 7.98622e+02
 7.74918e+02
 7.51886e+02
 7.29475e+02
 7.07624e+02
 6.86305e+02
 6.65417e+02
 6.44989e+02
 6.24928e+02
 6.05190e+02
 5.85765e+02
 5.66621e+02
 5.47705e+02
 5.28991e+02
 5.10451e+02
 4.92060e+02
 4.73792e+02
 4.55624e+02
 4.37533e+02
 4.19500e+02
 4.01507e+02
 3.83552e+02
 3.65612e+02
 3.47683e+02
 3.29771e+02
 3.11878e+02
 2.94000e+02
)


51
(
 2.94000e+02
 8.47844e+02
 1.42931e+03
 1.60057e+03
 1.51131e+03
 1.33633e+03
 1.49097e+03
 1.43249e+03
 1.37619e+03
 1.32338e+03
 1.27405e+03
 1.22809e+03
 1.18497e+03
 1.14441e+03
 1.10616e+03
 1.06998e+03
 1.03564e+03
 1.00296e+03
 9.71744e+02
 9.41827e+02
 9.13091e+02
 8.85425e+02
 8.58767e+02
 8.33050e+02
 8.08128e+02
 7.83994e+02
 7.60547e+02
 7.37736e+02
 7.15496e+02
 6.93801e+02
 6.72545e+02
 6.51760e+02
 6.31347e+02
 6.11264e+02
 5.91500e+02
 5.72019e+02
 5.52770e+02
 5.33722e+02
 5.14850e+02
 4.96125e+02
 4.77521e+02
 4.59013e+02
 4.40577e+02
 4.22192e+02
 4.03843e+02
 3.85520e+02
 3.67204e+02
 3.48893e+02
 3.30585e+02
 3.12288e+02
 2.94000e+02
)


51
(
 2.94000e+02
 8.67293e+02
 1.46810e+03
 1.63492e+03
 1.55562e+03
 1.37761e+03
 1.51374e+03
 1.45393e+03
 1.39641e+03
 1.34249e+03
 1.29213e+03
 1.24523e+03
 1.20123e+03
 1.15987e+03
 1.12087e+03
 1.08399e+03
 1.04900e+03
 1.01570e+03
 9.83912e+02
 9.53460e+02
 9.24210e+02
 8.96052e+02
 8.68921e+02
 8.42752e+02
 8.17393e+02
 7.92840e+02
 7.68989e+02
 7.45787e+02
 7.23169e+02
 7.01106e+02
 6.79492e+02
 6.58358e+02
 6.37604e+02
 6.17185e+02
 5.97090e+02
 5.77283e+02
 5.57708e+02
 5.38337e+02
 5.19142e+02
 5.00092e+02
 4.81161e+02
 4.62322e+02
 4.43550e+02
 4.24824e+02
 4.06127e+02
 3.87446e+02
 3.68763e+02
 3.50078e+02
 3.31383e+02
 3.12690e+02
 2.94000e+02
)


51
(
 2.94000e+02
 8.86743e+02
 1.50621e+03
 1.66954e+03
 1.59895e+03
 1.41808e+03
 1.53604e+03
 1.47500e+03
 1.41632e+03
 1.36130e+03
 1.30993e+03
 1.26209e+03
 1.21724e+03
 1.17508e+03
 1.13534e+03
 1.09777e+03
 1.06213e+03
 1.02822e+03
 9.95874e+02
 9.64895e+02
 9.35140e+02
 9.06498e+02
 8.78903e+02
 8.52289e+02
 8.26502e+02
 8.01536e+02
 7.77287e+02
 7.53701e+02
 7.30710e+02
 7.08287e+02
 6.86321e+02
 6.64844e+02
 6.43754e+02
 6.23006e+02
 6.02585e+02
 5.82457e+02
 5.62564e+02
 5.42876e+02
 5.23363e+02
 5.03995e+02
 4.84743e+02
 4.65580e+02
 4.46479e+02
 4.27417e+02
 4.08378e+02
 3.89345e+02
 3.70301e+02
 3.51247e+02
 3.32170e+02
 3.13087e+02
 2.94000e+02
)


51
(
 2.94000e+02
 9.05837e+02
 1.54341e+03
 1.70456e+03
 1.64094e+03
 1.45740e+03
 1.55796e+03
 1.49561e+03
 1.43574e+03
 1.37964e+03
 1.32728e+03
 1.27853e+03
 1.23283e+03
 1.18989e+03
 1.14943e+03
 1.11118e+03
 1.07491e+03
 1.04042e+03
 1.00751e+03
 9.76017e+02
 9.45772e+02
 9.16660e+02
 8.88613e+02
 8.61565e+02
 8.35361e+02
 8.09994e+02
 7.85358e+02
 7.61398e+02
 7.38044e+02
 7.15270e+02
 6.92962e+02
 6.71152e+02
 6.49736e+02
 6.28667e+02
 6.07931e+02
 5.87492e+02
 5.67290e+02
 5.47294e+02
 5.27473e+02
 5.07796e+02
 4.88233e+02
 4.68755e+02
 4.49334e+02
 4.29947e+02
 4.10576e+02
 3.91199e+02
 3.71803e+02
 3.52390e+02
 3.32941e+02
 3.13476e+02
 2.94000e+02
)


51
(
 2.94000e+02
 9.24911e+02
 1.57946e+03
 1.74011e+03
 1.68124e+03
 1.49521e+03
 1.58113e+03
 1.51787e+03
 1.45685e+03
 1.39962e+03
 1.34621e+03
 1.29642e+03
 1.24980e+03
 1.20604e+03
 1.16481e+03
 1.12584e+03
 1.08888e+03
 1.05373e+03
 1.02020e+03
 9.88116e+02
 9.57333e+02
 9.27730e+02
 8.99200e+02
 8.71664e+02
 8.45013e+02
 8.19201e+02
 7.94140e+02
 7.69771e+02
 7.46029e+02
 7.22865e+02
 7.00200e+02
 6.78012e+02
 6.56240e+02
 6.34832e+02
 6.13751e+02
 5.92968e+02
 5.72430e+02
 5.52095e+02
 5.31938e+02
 5.11928e+02
 4.92027e+02
 4.72208e+02
 4.52443e+02
 4.32703e+02
 4.12967e+02
 3.93223e+02
 3.73442e+02
 3.53632e+02
 3.33783e+02
 3.13898e+02
 2.94000e+02
)


51
(
 2.94000e+02
 9.43986e+02
 1.61414e+03
 1.77633e+03
 1.71950e+03
 1.53117e+03
 1.60478e+03
 1.53961e+03
 1.47720e+03
 1.41880e+03
 1.36437e+03
 1.31357e+03
 1.26607e+03
 1.22151e+03
 1.17954e+03
 1.13987e+03
 1.10226e+03
 1.06647e+03
 1.03235e+03
 9.99706e+02
 9.68409e+02
 9.38333e+02
 9.09337e+02
 8.81338e+02
 8.54257e+02
 8.28019e+02
 8.02553e+02
 7.77793e+02
 7.53676e+02
 7.30142e+02
 7.07131e+02
 6.84584e+02
 6.62471e+02
 6.40736e+02
 6.19326e+02
 5.98215e+02
 5.77355e+02
 5.56698e+02
 5.36220e+02
 5.15891e+02
 4.95667e+02
 4.75521e+02
 4.55426e+02
 4.35347e+02
 4.15264e+02
 3.95166e+02
 3.75017e+02
 3.54826e+02
 3.34593e+02
 3.14305e+02
 2.94000e+02
)


51
(
 2.94000e+02
 9.62595e+02
 1.64721e+03
 1.81334e+03
 1.75536e+03
 1.56494e+03
 1.62557e+03
 1.55909e+03
 1.49552e+03
 1.43609e+03
 1.38070e+03
 1.32903e+03
 1.28074e+03
 1.23543e+03
 1.19278e+03
 1.15247e+03
 1.11425e+03
 1.07791e+03
 1.04325e+03
 1.01012e+03
 9.78358e+02
 9.47844e+02
 9.18427e+02
 8.90022e+02
 8.62550e+02
 8.35935e+02
 8.10106e+02
 7.84995e+02
 7.60538e+02
 7.36675e+02
 7.13344e+02
 6.90485e+02
 6.68067e+02
 6.46034e+02
 6.24330e+02
 6.02928e+02
 5.81781e+02
 5.60837e+02
 5.40073e+02
 5.19457e+02
 4.98944e+02
 4.78505e+02
 4.58112e+02
 4.37730e+02
 4.17335e+02
 3.96919e+02
 3.76438e+02
 3.55907e+02
 3.35325e+02
 3.14673e+02
 2.94000e+02
)


51
(
 2.94000e+02
 9.80950e+02
 1.67844e+03
 1.85129e+03
 1.78847e+03
 1.59617e+03
 1.64605e+03
 1.57824e+03
 1.51353e+03
 1.45306e+03
 1.39674e+03
 1.34421e+03
 1.29512e+03
 1.24909e+03
 1.20575e+03
 1.16481e+03
 1.12601e+03
 1.08912e+03
 1.05394e+03
 1.02031e+03
 9.88101e+02
 9.57159e+02
 9.27328e+02
 8.98526e+02
 8.70671e+02
 8.43688e+02
 8.17502e+02
 7.92047e+02
 7.67258e+02
 7.43072e+02
 7.19428e+02
 6.96263e+02
 6.73547e+02
 6.51221e+02
 6.29230e+02
 6.07543e+02
 5.86115e+02
 5.64892e+02
 5.43848e+02
 5.22952e+02
 5.02156e+02
 4.81431e+02
 4.60747e+02
 4.40067e+02
 4.19367e+02
 3.98640e+02
 3.77834e+02
 3.56969e+02
 3.36045e+02
 3.15035e+02
 2.94000e+02
)


51
(
 2.94000e+02
 9.98731e+02
 1.70759e+03
 1.89030e+03
 1.81848e+03
 1.62452e+03
 1.66620e+03
 1.59705e+03
 1.53118e+03
 1.46970e+03
 1.41244e+03
 1.35906e+03
 1.30920e+03
 1.26244e+03
 1.21844e+03
 1.17689e+03
 1.13750e+03
 1.10007e+03
 1.06439e+03
 1.03028e+03
 9.97617e+02
 9.66256e+02
 9.36023e+02
 9.06832e+02
 8.78603e+02
 8.51259e+02
 8.24726e+02
 7.98935e+02
 7.73821e+02
 7.49319e+02
 7.25369e+02
 7.01906e+02
 6.78898e+02
 6.56287e+02
 6.34015e+02
 6.12052e+02
 5.90349e+02
 5.68853e+02
 5.47537e+02
 5.26367e+02
 5.05296e+02
 4.84292e+02
 4.63324e+02
 4.42354e+02
 4.21356e+02
 4.00325e+02
 3.79202e+02
 3.58010e+02
 3.36751e+02
 3.15390e+02
 2.94000e+02
)


51
(
 2.94000e+02
 1.01025e+03
 1.73442e+03
 1.93050e+03
 1.84504e+03
 1.64964e+03
 1.68605e+03
 1.61547e+03
 1.54844e+03
 1.48594e+03
 1.42777e+03
 1.37355e+03
 1.32292e+03
 1.27546e+03
 1.23081e+03
 1.18865e+03
 1.14870e+03
 1.11073e+03
 1.07455e+03
 1.03998e+03
 1.00687e+03
 9.75104e+02
 9.44480e+02